
 OpenBabel05282315393D

 49 52  0  0  0  0  0  0  0  0999 V2000
    0.9510    0.1258   -0.0083 H   0  0  0  0  0  0  0  0  0  0  0  0
    2.0377    0.1306   -0.0054 C   0  0  0  0  0  0  0  0  0  0  0  0
    2.7322    1.3314   -0.0103 C   0  0  0  0  0  0  0  0  0  0  0  0
    4.1281    1.3222    0.0008 C   0  0  0  0  0  0  0  0  0  0  0  0
    4.8541    0.1387    0.0164 C   0  0  0  0  0  0  0  0  0  0  0  0
    4.1555   -1.0932    0.0149 C   0  0  0  0  0  0  0  0  0  0  0  0
    2.7418   -1.0720    0.0047 C   0  0  0  0  0  0  0  0  0  0  0  0
    2.1686   -1.9950    0.0075 H   0  0  0  0  0  0  0  0  0  0  0  0
    4.9209   -2.2858    0.0244 C   0  0  0  0  0  0  0  0  0  0  0  0
    6.3162   -2.1772    0.0302 C   0  0  0  0  0  0  0  0  0  0  0  0
    6.9101   -0.9253    0.0459 C   0  0  0  0  0  0  0  0  0  0  0  0
    6.1941    0.2194    0.0346 N   0  0  0  0  0  0  0  0  0  0  0  0
    8.4027   -0.7983    0.0919 C   0  0  0  0  0  0  0  0  0  0  0  0
    8.7597   -0.2479   -0.7831 H   0  0  0  0  0  0  0  0  0  0  0  0
    8.7023   -0.2676    1.0005 H   0  0  0  0  0  0  0  0  0  0  0  0
    8.8875   -1.7802    0.0982 H   0  0  0  0  0  0  0  0  0  0  0  0
    6.9433   -3.0635    0.0294 H   0  0  0  0  0  0  0  0  0  0  0  0
    4.2610   -3.6557    0.0143 C   0  0  0  0  0  0  0  0  0  0  0  0
    3.5975   -3.7364    0.8831 H   0  0  0  0  0  0  0  0  0  0  0  0
    3.6886   -3.7377   -0.9154 H   0  0  0  0  0  0  0  0  0  0  0  0
    5.2437   -4.6923    0.1153 O   0  0  0  0  0  0  0  0  0  0  0  0
    4.8126   -5.9824    0.0081 C   0  0  0  0  0  0  0  0  0  0  0  0
    5.5092   -6.9130    0.7825 C   0  0  0  0  0  0  0  0  0  0  0  0
    5.2444   -8.2805    0.6572 C   0  0  0  0  0  0  0  0  0  0  0  0
    4.2216   -8.7155   -0.1950 C   0  0  0  0  0  0  0  0  0  0  0  0
    3.5312   -7.7919   -0.9811 C   0  0  0  0  0  0  0  0  0  0  0  0
    3.8371   -6.4259   -0.8846 C   0  0  0  0  0  0  0  0  0  0  0  0
    3.3133   -5.7331   -1.5344 H   0  0  0  0  0  0  0  0  0  0  0  0
    2.7597   -8.1037   -1.6759 H   0  0  0  0  0  0  0  0  0  0  0  0
    3.7957  -10.4422   -0.1672 S   0  0  0  0  0  0  0  0  0  0  0  0
    4.9014  -11.1717   -0.7446 O   0  0  0  0  0  0  0  0  0  0  0  0
    3.2815  -10.7342    1.1513 O   0  0  0  0  0  0  0  0  0  0  0  0
    2.4927  -10.6303   -1.2728 N   0  0  0  0  0  0  0  0  0  0  0  0
    2.8487  -10.4041   -2.2036 H   0  0  0  0  0  0  0  0  0  0  0  0
    1.9927  -12.0461   -1.2726 C   0  0  0  0  0  0  0  0  0  0  0  0
    2.8037  -12.7123   -1.5893 H   0  0  0  0  0  0  0  0  0  0  0  0
    1.6548  -12.3421   -0.2744 H   0  0  0  0  0  0  0  0  0  0  0  0
    0.8503  -12.2643   -2.2275 C   0  0  0  0  0  0  0  0  0  0  0  0
    0.4478  -13.4381   -2.6309 N   0  0  0  0  0  0  0  0  0  0  0  0
   -0.5936  -13.1561   -3.4779 N   0  0  0  0  0  0  0  0  0  0  0  0
   -0.7957  -11.7855   -3.5608 C   0  0  0  0  0  0  0  0  0  0  0  0
   -1.6265  -11.1958   -4.2190 O   0  0  0  0  0  0  0  0  0  0  0  0
    0.1500  -11.2366   -2.7427 N   0  0  0  0  0  0  0  0  0  0  0  0
    0.2458  -10.2554   -2.5515 H   0  0  0  0  0  0  0  0  0  0  0  0
   -1.1285  -13.8700   -3.9564 H   0  0  0  0  0  0  0  0  0  0  0  0
    5.8352   -8.9942    1.2290 H   0  0  0  0  0  0  0  0  0  0  0  0
    6.2564   -6.5687    1.4957 H   0  0  0  0  0  0  0  0  0  0  0  0
    4.6670    2.2676   -0.0010 H   0  0  0  0  0  0  0  0  0  0  0  0
    2.1957    2.2763   -0.0207 H   0  0  0  0  0  0  0  0  0  0  0  0
  1  2  1  0  0  0  0
  2  3  1  0  0  0  0
  2  7  2  0  0  0  0
  3  4  2  0  0  0  0
  3 49  1  0  0  0  0
  4  5  1  0  0  0  0
  4 48  1  0  0  0  0
  5  6  1  0  0  0  0
  5 12  2  0  0  0  0
  6  7  1  0  0  0  0
  6  9  2  0  0  0  0
  7  8  1  0  0  0  0
  9 10  1  0  0  0  0
  9 18  1  0  0  0  0
 10 11  2  0  0  0  0
 10 17  1  0  0  0  0
 11 12  1  0  0  0  0
 11 13  1  0  0  0  0
 13 14  1  0  0  0  0
 13 15  1  0  0  0  0
 13 16  1  0  0  0  0
 18 19  1  0  0  0  0
 18 20  1  0  0  0  0
 18 21  1  0  0  0  0
 21 22  1  0  0  0  0
 22 23  1  0  0  0  0
 22 27  2  0  0  0  0
 23 24  2  0  0  0  0
 23 47  1  0  0  0  0
 24 25  1  0  0  0  0
 24 46  1  0  0  0  0
 25 26  2  0  0  0  0
 25 30  1  0  0  0  0
 26 27  1  0  0  0  0
 26 29  1  0  0  0  0
 27 28  1  0  0  0  0
 30 31  2  0  0  0  0
 30 32  2  0  0  0  0
 30 33  1  0  0  0  0
 33 34  1  0  0  0  0
 33 35  1  0  0  0  0
 35 36  1  0  0  0  0
 35 37  1  0  0  0  0
 35 38  1  0  0  0  0
 38 39  2  0  0  0  0
 38 43  1  0  0  0  0
 39 40  1  0  0  0  0
 40 41  1  0  0  0  0
 40 45  1  0  0  0  0
 41 42  2  0  0  0  0
 41 43  1  0  0  0  0
 43 44  1  0  0  0  0
M  END
$$$$
