
 OpenBabel05282315393D

 40 43  0  0  0  0  0  0  0  0999 V2000
    1.1524   -0.2144    0.4794 H   0  0  0  0  0  0  0  0  0  0  0  0
    2.2248   -0.1291    0.3287 C   0  0  0  0  0  0  0  0  0  0  0  0
    2.9504   -1.2986    0.1581 C   0  0  0  0  0  0  0  0  0  0  0  0
    4.3315   -1.2261    0.2207 C   0  0  0  0  0  0  0  0  0  0  0  0
    4.9665    0.0211    0.1729 C   0  0  0  0  0  0  0  0  0  0  0  0
    4.2258    1.2001    0.1790 C   0  0  0  0  0  0  0  0  0  0  0  0
    2.8341    1.1354    0.2902 C   0  0  0  0  0  0  0  0  0  0  0  0
    1.9884    2.4004    0.2561 C   0  0  0  0  0  0  0  0  0  0  0  0
    2.1229    3.0071    1.1554 H   0  0  0  0  0  0  0  0  0  0  0  0
    2.4277    2.9726   -0.5760 H   0  0  0  0  0  0  0  0  0  0  0  0
    0.5361    2.1027   -0.0178 N   0  0  0  0  0  0  0  0  0  0  0  0
   -0.3457    3.2382   -0.0945 C   0  0  0  0  0  0  0  0  0  0  0  0
   -1.6169    3.2440    0.4522 C   0  0  0  0  0  0  0  0  0  0  0  0
   -2.5565    4.1784   -0.0217 C   0  0  0  0  0  0  0  0  0  0  0  0
   -2.2064    5.1638   -0.9684 C   0  0  0  0  0  0  0  0  0  0  0  0
   -0.9969    5.0364   -1.6500 C   0  0  0  0  0  0  0  0  0  0  0  0
   -0.1854    3.9709   -1.2701 C   0  0  0  0  0  0  0  0  0  0  0  0
    0.6400    3.0790   -2.1049 C   0  0  0  0  0  0  0  0  0  0  0  0
    1.5551    3.4136   -2.8233 O   0  0  0  0  0  0  0  0  0  0  0  0
    0.4982    1.6951   -1.3606 C   0  0  0  0  0  0  0  0  0  0  0  0
    0.1332    0.6139   -1.7841 O   0  0  0  0  0  0  0  0  0  0  0  0
   -0.7153    5.6714   -2.4819 H   0  0  0  0  0  0  0  0  0  0  0  0
   -3.1681    6.1154   -1.1583 O   0  0  0  0  0  0  0  0  0  0  0  0
   -2.8470    7.2630   -1.9303 C   0  0  0  0  0  0  0  0  0  0  0  0
   -1.7492    7.8866   -1.4531 F   0  0  0  0  0  0  0  0  0  0  0  0
   -2.6488    6.9233   -3.2200 F   0  0  0  0  0  0  0  0  0  0  0  0
   -3.8819    8.1311   -1.8749 F   0  0  0  0  0  0  0  0  0  0  0  0
   -3.5891    4.1164    0.3253 H   0  0  0  0  0  0  0  0  0  0  0  0
   -1.9264    2.4617    1.1397 H   0  0  0  0  0  0  0  0  0  0  0  0
    4.7571    2.1480    0.1342 H   0  0  0  0  0  0  0  0  0  0  0  0
    6.0500    0.0892    0.1719 H   0  0  0  0  0  0  0  0  0  0  0  0
    5.0103   -2.4093    0.3850 O   0  0  0  0  0  0  0  0  0  0  0  0
    6.2657   -2.3901    0.8406 C   0  0  0  0  0  0  0  0  0  0  0  0
    6.6712   -1.6581    1.8627 N   0  0  0  0  0  0  0  0  0  0  0  0
    8.0465   -1.7367    1.9688 C   0  0  0  0  0  0  0  0  0  0  0  0
    8.6603   -2.5577    1.0491 C   0  0  0  0  0  0  0  0  0  0  0  0
    7.4860   -3.2692    0.0269 S   0  0  0  0  0  0  0  0  0  0  0  0
    9.7100   -2.7761    0.9315 H   0  0  0  0  0  0  0  0  0  0  0  0
    8.5608   -1.1684    2.7360 H   0  0  0  0  0  0  0  0  0  0  0  0
    2.4203   -2.2397    0.0406 H   0  0  0  0  0  0  0  0  0  0  0  0
  1  2  1  0  0  0  0
  2  3  1  0  0  0  0
  2  7  2  0  0  0  0
  3  4  2  0  0  0  0
  3 40  1  0  0  0  0
  4  5  1  0  0  0  0
  4 32  1  0  0  0  0
  5  6  2  0  0  0  0
  5 31  1  0  0  0  0
  6  7  1  0  0  0  0
  6 30  1  0  0  0  0
  7  8  1  0  0  0  0
  8  9  1  0  0  0  0
  8 10  1  0  0  0  0
  8 11  1  0  0  0  0
 11 12  1  0  0  0  0
 11 20  1  0  0  0  0
 12 13  1  0  0  0  0
 12 17  2  0  0  0  0
 13 14  2  0  0  0  0
 13 29  1  0  0  0  0
 14 15  1  0  0  0  0
 14 28  1  0  0  0  0
 15 16  2  0  0  0  0
 15 23  1  0  0  0  0
 16 17  1  0  0  0  0
 16 22  1  0  0  0  0
 17 18  1  0  0  0  0
 18 19  2  0  0  0  0
 18 20  1  0  0  0  0
 20 21  2  0  0  0  0
 23 24  1  0  0  0  0
 24 25  1  0  0  0  0
 24 26  1  0  0  0  0
 24 27  1  0  0  0  0
 32 33  1  0  0  0  0
 33 34  2  0  0  0  0
 33 37  1  0  0  0  0
 34 35  1  0  0  0  0
 35 36  2  0  0  0  0
 35 39  1  0  0  0  0
 36 37  1  0  0  0  0
 36 38  1  0  0  0  0
M  END
$$$$
