
 OpenBabel05282315403D

 48 51  0  0  0  0  0  0  0  0999 V2000
    0.9049    0.0107   -0.0969 H   0  0  0  0  0  0  0  0  0  0  0  0
    1.9832    0.0183   -0.0050 C   0  0  0  0  0  0  0  0  0  0  0  0
    2.6555   -1.1752    0.0666 C   0  0  0  0  0  0  0  0  0  0  0  0
    4.0228   -1.1523    0.2932 C   0  0  0  0  0  0  0  0  0  0  0  0
    4.8210    0.0051    0.2696 C   0  0  0  0  0  0  0  0  0  0  0  0
    4.1021    1.2016    0.1805 C   0  0  0  0  0  0  0  0  0  0  0  0
    2.7024    1.2071    0.0754 C   0  0  0  0  0  0  0  0  0  0  0  0
    2.1748    2.1532    0.0343 H   0  0  0  0  0  0  0  0  0  0  0  0
    4.6041    2.1644    0.1995 H   0  0  0  0  0  0  0  0  0  0  0  0
    6.3418    0.0145    0.2817 C   0  0  0  0  0  0  0  0  0  0  0  0
    7.1133   -1.1031    0.3375 C   0  0  0  0  0  0  0  0  0  0  0  0
    8.1993   -1.0458    0.3312 H   0  0  0  0  0  0  0  0  0  0  0  0
    6.5677   -2.4816    0.3857 C   0  0  0  0  0  0  0  0  0  0  0  0
    6.0063   -2.5803    1.3241 H   0  0  0  0  0  0  0  0  0  0  0  0
    5.9511   -2.5438   -0.5185 H   0  0  0  0  0  0  0  0  0  0  0  0
    7.4625   -3.6985    0.3360 C   0  0  0  0  0  0  0  0  0  0  0  0
    8.0831   -3.6460   -0.5627 H   0  0  0  0  0  0  0  0  0  0  0  0
    8.1128   -3.6794    1.2178 H   0  0  0  0  0  0  0  0  0  0  0  0
    6.6624   -4.9419    0.3671 N   0  0  0  0  0  0  0  0  0  0  0  0
    5.3902   -4.8686   -0.4047 C   0  0  0  0  0  0  0  0  0  0  0  0
    4.7642   -6.1837   -0.5280 C   0  0  0  0  0  0  0  0  0  0  0  0
    5.3390   -7.3487   -0.2633 C   0  0  0  0  0  0  0  0  0  0  0  0
    6.7668   -7.4298    0.1631 C   0  0  0  0  0  0  0  0  0  0  0  0
    7.4743   -6.0784   -0.1093 C   0  0  0  0  0  0  0  0  0  0  0  0
    7.6505   -5.9650   -1.1887 H   0  0  0  0  0  0  0  0  0  0  0  0
    8.4538   -6.0777    0.3811 H   0  0  0  0  0  0  0  0  0  0  0  0
    7.2941   -8.2215   -0.3765 H   0  0  0  0  0  0  0  0  0  0  0  0
    6.8158   -7.6531    1.2355 H   0  0  0  0  0  0  0  0  0  0  0  0
    4.5441   -8.4613   -0.4459 O   0  0  0  0  0  0  0  0  0  0  0  0
    3.3231   -7.8695   -0.8690 N   0  0  0  0  0  0  0  0  0  0  0  0
    3.4125   -6.5056   -0.9144 C   0  0  0  0  0  0  0  0  0  0  0  0
    2.5488   -5.6949   -1.2204 O   0  0  0  0  0  0  0  0  0  0  0  0
    2.5095   -8.4300   -1.0676 H   0  0  0  0  0  0  0  0  0  0  0  0
    4.6712   -4.2246    0.1109 H   0  0  0  0  0  0  0  0  0  0  0  0
    5.5679   -4.4734   -1.4126 H   0  0  0  0  0  0  0  0  0  0  0  0
    7.1501    1.2675    0.2393 C   0  0  0  0  0  0  0  0  0  0  0  0
    8.0599    1.5339   -0.7961 C   0  0  0  0  0  0  0  0  0  0  0  0
    8.8690    2.6714   -0.7442 C   0  0  0  0  0  0  0  0  0  0  0  0
    8.6968    3.6043    0.2779 C   0  0  0  0  0  0  0  0  0  0  0  0
    7.7614    3.3730    1.2831 C   0  0  0  0  0  0  0  0  0  0  0  0
    7.0121    2.1990    1.2762 C   0  0  0  0  0  0  0  0  0  0  0  0
    6.2952    2.0181    2.0738 H   0  0  0  0  0  0  0  0  0  0  0  0
    7.6216    4.0945    2.0828 H   0  0  0  0  0  0  0  0  0  0  0  0
    9.2892    4.5149    0.2894 H   0  0  0  0  0  0  0  0  0  0  0  0
    9.6368    2.8290   -1.4972 H   0  0  0  0  0  0  0  0  0  0  0  0
    8.1469    0.8571   -1.6438 H   0  0  0  0  0  0  0  0  0  0  0  0
    4.3817   -2.1362    0.5082 H   0  0  0  0  0  0  0  0  0  0  0  0
    2.1589   -2.1385   -0.0235 H   0  0  0  0  0  0  0  0  0  0  0  0
  1  2  1  0  0  0  0
  2  3  1  0  0  0  0
  2  7  2  0  0  0  0
  3  4  2  0  0  0  0
  3 48  1  0  0  0  0
  4  5  1  0  0  0  0
  4 47  1  0  0  0  0
  5  6  2  0  0  0  0
  5 10  1  0  0  0  0
  6  7  1  0  0  0  0
  6  9  1  0  0  0  0
  7  8  1  0  0  0  0
 10 11  2  0  0  0  0
 10 36  1  0  0  0  0
 11 12  1  0  0  0  0
 11 13  1  0  0  0  0
 13 14  1  0  0  0  0
 13 15  1  0  0  0  0
 13 16  1  0  0  0  0
 16 17  1  0  0  0  0
 16 18  1  0  0  0  0
 16 19  1  0  0  0  0
 19 20  1  0  0  0  0
 19 24  1  0  0  0  0
 20 21  1  0  0  0  0
 20 34  1  0  0  0  0
 20 35  1  0  0  0  0
 21 22  2  0  0  0  0
 21 31  1  0  0  0  0
 22 23  1  0  0  0  0
 22 29  1  0  0  0  0
 23 24  1  0  0  0  0
 23 27  1  0  0  0  0
 23 28  1  0  0  0  0
 24 25  1  0  0  0  0
 24 26  1  0  0  0  0
 29 30  1  0  0  0  0
 30 31  1  0  0  0  0
 30 33  1  0  0  0  0
 31 32  2  0  0  0  0
 36 37  1  0  0  0  0
 36 41  2  0  0  0  0
 37 38  2  0  0  0  0
 37 46  1  0  0  0  0
 38 39  1  0  0  0  0
 38 45  1  0  0  0  0
 39 40  2  0  0  0  0
 39 44  1  0  0  0  0
 40 41  1  0  0  0  0
 40 43  1  0  0  0  0
 41 42  1  0  0  0  0
M  END
$$$$
