
 OpenBabel05282315403D

 40 43  0  0  0  0  0  0  0  0999 V2000
    0.8597    0.0643   -0.1510 H   0  0  0  0  0  0  0  0  0  0  0  0
    1.9574    0.1150   -0.1191 C   0  0  0  0  0  0  0  0  0  0  0  0
    2.5873   -0.9271   -1.0584 C   0  0  0  0  0  0  0  0  0  0  0  0
    4.1371   -0.7850   -1.2662 C   0  0  0  0  0  0  0  0  0  0  0  0
    5.0316   -0.0616   -0.1707 C   0  0  0  0  0  0  0  0  0  0  0  0
    5.2884    1.8041   -0.6291 C   0  0  0  0  0  0  0  0  0  0  0  0
    3.9838    1.4179   -0.4985 C   0  0  0  0  0  0  0  0  0  0  0  0
    2.4725    1.5327   -0.4503 C   0  0  0  0  0  0  0  0  0  0  0  0
    2.1567    2.2229    0.3347 H   0  0  0  0  0  0  0  0  0  0  0  0
    2.0448    1.8605   -1.3963 H   0  0  0  0  0  0  0  0  0  0  0  0
    4.5730    0.4324   -1.8957 C   0  0  0  0  0  0  0  0  0  0  0  0
    4.2076    0.8123   -3.2963 C   0  0  0  0  0  0  0  0  0  0  0  0
    4.2477   -0.4013   -4.2400 C   0  0  0  0  0  0  0  0  0  0  0  0
    4.8550   -1.7063   -3.6088 C   0  0  0  0  0  0  0  0  0  0  0  0
    4.7350   -1.9485   -1.9400 C   0  0  0  0  0  0  0  0  0  0  0  0
    3.9745   -2.5947   -2.9697 O   0  0  0  0  0  0  0  0  0  0  0  0
    5.2734   -2.9110   -0.8795 C   0  0  0  0  0  0  0  0  0  0  0  0
    4.5576   -3.6881   -0.5909 H   0  0  0  0  0  0  0  0  0  0  0  0
    6.2926   -3.2756   -1.0065 H   0  0  0  0  0  0  0  0  0  0  0  0
    5.3497   -2.3838    0.0907 H   0  0  0  0  0  0  0  0  0  0  0  0
    5.7070   -2.0641   -4.1828 H   0  0  0  0  0  0  0  0  0  0  0  0
    4.9106   -0.0680   -5.0596 H   0  0  0  0  0  0  0  0  0  0  0  0
    3.2751   -0.5605   -4.7164 H   0  0  0  0  0  0  0  0  0  0  0  0
    5.0663    1.4165   -3.6251 H   0  0  0  0  0  0  0  0  0  0  0  0
    3.4169    1.5601   -3.4057 H   0  0  0  0  0  0  0  0  0  0  0  0
    6.3655    0.1594   -2.1550 C   0  0  0  0  0  0  0  0  0  0  0  0
    6.9347   -0.1936   -1.2898 H   0  0  0  0  0  0  0  0  0  0  0  0
    6.5637   -0.6183   -2.8821 H   0  0  0  0  0  0  0  0  0  0  0  0
    6.8678    1.0399   -2.5509 H   0  0  0  0  0  0  0  0  0  0  0  0
    4.5975    1.6405    1.2510 C   0  0  0  0  0  0  0  0  0  0  0  0
    5.7403    1.6290    1.2774 H   0  0  0  0  0  0  0  0  0  0  0  0
    4.3588    2.6334    1.6248 H   0  0  0  0  0  0  0  0  0  0  0  0
    4.3876    0.8570    1.9853 H   0  0  0  0  0  0  0  0  0  0  0  0
    4.9218    2.8303   -0.3747 H   0  0  0  0  0  0  0  0  0  0  0  0
    5.6825    2.1114   -1.6197 H   0  0  0  0  0  0  0  0  0  0  0  0
    5.9781   -0.4696    0.1787 H   0  0  0  0  0  0  0  0  0  0  0  0
    4.4049   -0.3517    0.6992 H   0  0  0  0  0  0  0  0  0  0  0  0
    2.3378   -1.9331   -0.6826 H   0  0  0  0  0  0  0  0  0  0  0  0
    2.0713   -0.8652   -2.0308 H   0  0  0  0  0  0  0  0  0  0  0  0
    2.2205   -0.1511    0.9149 H   0  0  0  0  0  0  0  0  0  0  0  0
  1  2  1  0  0  0  0
  2  3  1  0  0  0  0
  2  8  1  0  0  0  0
  2 40  1  0  0  0  0
  3  4  1  0  0  0  0
  3 38  1  0  0  0  0
  3 39  1  0  0  0  0
  4  5  1  0  0  0  0
  4 11  1  0  0  0  0
  4 15  1  0  0  0  0
  5  6  1  0  0  0  0
  5 36  1  0  0  0  0
  5 37  1  0  0  0  0
  6  7  1  0  0  0  0
  6 34  1  0  0  0  0
  6 35  1  0  0  0  0
  7  8  1  0  0  0  0
  7 11  1  0  0  0  0
  7 30  1  0  0  0  0
  8  9  1  0  0  0  0
  8 10  1  0  0  0  0
 11 12  1  0  0  0  0
 11 26  1  0  0  0  0
 12 13  1  0  0  0  0
 12 24  1  0  0  0  0
 12 25  1  0  0  0  0
 13 14  1  0  0  0  0
 13 22  1  0  0  0  0
 13 23  1  0  0  0  0
 14 15  1  0  0  0  0
 14 16  1  0  0  0  0
 14 21  1  0  0  0  0
 15 16  1  0  0  0  0
 15 17  1  0  0  0  0
 17 18  1  0  0  0  0
 17 19  1  0  0  0  0
 17 20  1  0  0  0  0
 26 27  1  0  0  0  0
 26 28  1  0  0  0  0
 26 29  1  0  0  0  0
 30 31  1  0  0  0  0
 30 32  1  0  0  0  0
 30 33  1  0  0  0  0
M  END
$$$$
