
 OpenBabel05282315403D

 27 27  0  0  1  0  0  0  0  0999 V2000
    1.1323    5.4271   -0.0039 H   0  0  0  0  0  0  0  0  0  0  0  0
    1.4331    5.0840   -0.9718 C   0  0  0  0  0  0  0  0  0  0  0  0
    0.9735    3.7324   -1.4992 C   0  0  0  0  0  0  0  0  0  0  0  0
    0.6861    2.6559   -0.8497 N   0  0  0  0  0  0  0  0  0  0  0  0
    0.6294    2.5456    0.6407 C   0  0  2  0  0  0  0  0  0  0  0  0
    1.6368    2.3207    1.0132 H   0  0  0  0  0  0  0  0  0  0  0  0
   -0.2676    1.3761    1.1138 C   0  0  0  0  0  0  0  0  0  0  0  0
   -1.1608    1.4355    1.9414 O   0  0  0  0  0  0  0  0  0  0  0  0
    0.0734    0.1543    0.6599 O   0  0  0  0  0  0  0  0  0  0  0  0
   -0.5995   -0.4098    1.1019 H   0  0  0  0  0  0  0  0  0  0  0  0
    0.0565    3.7679    1.3793 C   0  0  0  0  0  0  0  0  0  0  0  0
   -0.0962    3.5728    2.4449 H   0  0  0  0  0  0  0  0  0  0  0  0
    0.8027    4.5546    1.4289 H   0  0  0  0  0  0  0  0  0  0  0  0
   -1.5419    4.3431    0.6467 S   0  0  0  0  0  0  0  0  0  0  0  0
   -1.6831    5.4848    1.3216 H   0  0  0  0  0  0  0  0  0  0  0  0
    0.8634    3.9056   -2.8674 N   0  0  0  0  0  0  0  0  0  0  0  0
    0.5341    5.2793   -3.2137 C   0  0  0  0  0  0  0  0  0  0  0  0
    0.7714    6.0578   -1.9316 C   0  0  0  0  0  0  0  0  0  0  0  0
   -0.1878    6.3913   -1.5121 H   0  0  0  0  0  0  0  0  0  0  0  0
    1.3860    6.9511   -2.0685 H   0  0  0  0  0  0  0  0  0  0  0  0
   -0.5286    5.3302   -3.4789 H   0  0  0  0  0  0  0  0  0  0  0  0
    1.1250    5.6946   -4.0334 H   0  0  0  0  0  0  0  0  0  0  0  0
    1.3476    3.0114   -3.8939 C   0  0  0  0  0  0  0  0  0  0  0  0
    2.4049    2.7631   -3.7431 H   0  0  0  0  0  0  0  0  0  0  0  0
    0.7655    2.0883   -3.9240 H   0  0  0  0  0  0  0  0  0  0  0  0
    1.2775    3.4779   -4.8867 H   0  0  0  0  0  0  0  0  0  0  0  0
    2.5257    5.1214   -1.0129 H   0  0  0  0  0  0  0  0  0  0  0  0
  1  2  1  0  0  0  0
  2  3  1  0  0  0  0
  2 18  1  0  0  0  0
  2 27  1  0  0  0  0
  3  4  2  0  0  0  0
  3 16  1  0  0  0  0
  5  7  1  0  0  0  0
  5 11  1  0  0  0  0
  5  6  1  1  0  0  0
  5  4  1  0  0  0  0
  7  8  2  0  0  0  0
  7  9  1  0  0  0  0
  9 10  1  0  0  0  0
 11 12  1  0  0  0  0
 11 13  1  0  0  0  0
 11 14  1  0  0  0  0
 14 15  1  0  0  0  0
 16 17  1  0  0  0  0
 16 23  1  0  0  0  0
 17 18  1  0  0  0  0
 17 21  1  0  0  0  0
 17 22  1  0  0  0  0
 18 19  1  0  0  0  0
 18 20  1  0  0  0  0
 23 24  1  0  0  0  0
 23 25  1  0  0  0  0
 23 26  1  0  0  0  0
M  END
$$$$
