
 OpenBabel05282315413D

 37 38  0  0  0  0  0  0  0  0999 V2000
    0.9601   -0.0880    0.0174 H   0  0  0  0  0  0  0  0  0  0  0  0
    2.0456   -0.1163    0.0681 C   0  0  0  0  0  0  0  0  0  0  0  0
    2.7472    1.1013    0.0523 C   0  0  0  0  0  0  0  0  0  0  0  0
    4.1365    1.1129    0.0865 C   0  0  0  0  0  0  0  0  0  0  0  0
    4.8541   -0.0760    0.1324 C   0  0  0  0  0  0  0  0  0  0  0  0
    4.1359   -1.3032    0.1813 C   0  0  0  0  0  0  0  0  0  0  0  0
    2.7230   -1.3386    0.1778 C   0  0  0  0  0  0  0  0  0  0  0  0
    2.0365   -2.5834    0.1060 N   0  0  0  0  0  0  0  0  0  0  0  0
    2.0116   -3.6304    1.0292 C   0  0  0  0  0  0  0  0  0  0  0  0
    2.1159   -3.4829    2.3129 N   0  0  0  0  0  0  0  0  0  0  0  0
    1.8893   -4.6595    3.1717 C   0  0  0  0  0  0  0  0  0  0  0  0
    0.9007   -5.0955    2.9926 H   0  0  0  0  0  0  0  0  0  0  0  0
    2.6746   -5.4019    3.0026 H   0  0  0  0  0  0  0  0  0  0  0  0
    1.8794   -4.3349    4.6522 C   0  0  0  0  0  0  0  0  0  0  0  0
    2.8202   -3.8803    4.9633 H   0  0  0  0  0  0  0  0  0  0  0  0
    1.0497   -3.6696    4.9088 H   0  0  0  0  0  0  0  0  0  0  0  0
    1.7409   -5.2621    5.2268 H   0  0  0  0  0  0  0  0  0  0  0  0
    1.7833   -4.9237    0.1947 C   0  0  0  0  0  0  0  0  0  0  0  0
    0.9927   -4.3174   -0.8524 N   0  0  0  0  0  0  0  0  0  0  0  0
    1.2431   -2.9535   -0.9598 C   0  0  0  0  0  0  0  0  0  0  0  0
    0.7801   -2.2658   -1.8632 O   0  0  0  0  0  0  0  0  0  0  0  0
    0.4893   -4.8101   -1.5806 H   0  0  0  0  0  0  0  0  0  0  0  0
    1.0844   -6.1282    0.8009 C   0  0  0  0  0  0  0  0  0  0  0  0
    0.9382   -6.9289    0.0694 H   0  0  0  0  0  0  0  0  0  0  0  0
    1.6900   -6.5795    1.5928 H   0  0  0  0  0  0  0  0  0  0  0  0
    0.1023   -5.8665    1.2049 H   0  0  0  0  0  0  0  0  0  0  0  0
    3.1579   -5.3778   -0.3258 C   0  0  0  0  0  0  0  0  0  0  0  0
    3.6756   -4.6003   -0.8981 H   0  0  0  0  0  0  0  0  0  0  0  0
    3.8069   -5.6485    0.5160 H   0  0  0  0  0  0  0  0  0  0  0  0
    3.0646   -6.2543   -0.9764 H   0  0  0  0  0  0  0  0  0  0  0  0
    4.7016   -2.2339    0.1537 H   0  0  0  0  0  0  0  0  0  0  0  0
    6.3582   -0.0373    0.1276 C   0  0  0  0  0  0  0  0  0  0  0  0
    6.8868   -0.6736    1.2109 F   0  0  0  0  0  0  0  0  0  0  0  0
    6.8914   -0.6633   -0.9606 F   0  0  0  0  0  0  0  0  0  0  0  0
    6.9116    1.2077    0.1345 F   0  0  0  0  0  0  0  0  0  0  0  0
    4.7674    2.2955    0.0682 F   0  0  0  0  0  0  0  0  0  0  0  0
    2.2203    2.0514    0.0109 H   0  0  0  0  0  0  0  0  0  0  0  0
  1  2  1  0  0  0  0
  2  3  1  0  0  0  0
  2  7  2  0  0  0  0
  3  4  2  0  0  0  0
  3 37  1  0  0  0  0
  4  5  1  0  0  0  0
  4 36  1  0  0  0  0
  5  6  2  0  0  0  0
  5 32  1  0  0  0  0
  6  7  1  0  0  0  0
  6 31  1  0  0  0  0
  7  8  1  0  0  0  0
  8  9  1  0  0  0  0
  8 20  1  0  0  0  0
  9 10  2  0  0  0  0
  9 18  1  0  0  0  0
 10 11  1  0  0  0  0
 11 12  1  0  0  0  0
 11 13  1  0  0  0  0
 11 14  1  0  0  0  0
 14 15  1  0  0  0  0
 14 16  1  0  0  0  0
 14 17  1  0  0  0  0
 18 19  1  0  0  0  0
 18 23  1  0  0  0  0
 18 27  1  0  0  0  0
 19 20  1  0  0  0  0
 19 22  1  0  0  0  0
 20 21  2  0  0  0  0
 23 24  1  0  0  0  0
 23 25  1  0  0  0  0
 23 26  1  0  0  0  0
 27 28  1  0  0  0  0
 27 29  1  0  0  0  0
 27 30  1  0  0  0  0
 32 33  1  0  0  0  0
 32 34  1  0  0  0  0
 32 35  1  0  0  0  0
M  END
$$$$
