
 OpenBabel05282315403D

 17 17  0  0  0  0  0  0  0  0999 V2000
    0.8856    0.0228    0.0540 H   0  0  0  0  0  0  0  0  0  0  0  0
    1.9787   -0.0170   -0.0369 C   0  0  0  0  0  0  0  0  0  0  0  0
    2.5205    1.2774   -0.6717 C   0  0  0  0  0  0  0  0  0  0  0  0
    3.9537    1.2635   -0.7348 O   0  0  0  0  0  0  0  0  0  0  0  0
    4.4381    0.1071   -1.4319 C   0  0  0  0  0  0  0  0  0  0  0  0
    3.9030   -1.1892   -0.7955 C   0  0  0  0  0  0  0  0  0  0  0  0
    2.4191   -1.2303   -0.7705 N   0  0  0  0  0  0  0  0  0  0  0  0
    1.6900   -1.4318   -2.3149 P   0  0  0  0  0  0  0  0  0  0  0  0
    2.1983   -3.2532   -3.1995 Cl  0  0  0  0  0  0  0  0  0  0  0  0
   -0.3835   -1.6408   -2.1945 Cl  0  0  0  0  0  0  0  0  0  0  0  0
    4.2642   -1.2441    0.2409 H   0  0  0  0  0  0  0  0  0  0  0  0
    4.3208   -2.0709   -1.2985 H   0  0  0  0  0  0  0  0  0  0  0  0
    5.5330    0.1224   -1.3829 H   0  0  0  0  0  0  0  0  0  0  0  0
    4.1639    0.1835   -2.4890 H   0  0  0  0  0  0  0  0  0  0  0  0
    2.1179    1.4351   -1.6773 H   0  0  0  0  0  0  0  0  0  0  0  0
    2.2223    2.1418   -0.0674 H   0  0  0  0  0  0  0  0  0  0  0  0
    2.3560   -0.0848    0.9929 H   0  0  0  0  0  0  0  0  0  0  0  0
  1  2  1  0  0  0  0
  2  3  1  0  0  0  0
  2  7  1  0  0  0  0
  2 17  1  0  0  0  0
  3  4  1  0  0  0  0
  3 15  1  0  0  0  0
  3 16  1  0  0  0  0
  4  5  1  0  0  0  0
  5  6  1  0  0  0  0
  5 13  1  0  0  0  0
  5 14  1  0  0  0  0
  6  7  1  0  0  0  0
  6 11  1  0  0  0  0
  6 12  1  0  0  0  0
  7  8  1  0  0  0  0
  8  9  1  0  0  0  0
  8 10  1  0  0  0  0
M  END
$$$$
