
 OpenBabel05282315403D

 29 30  0  0  0  0  0  0  0  0999 V2000
    1.0203   -0.0849    0.0214 H   0  0  0  0  0  0  0  0  0  0  0  0
    2.1143   -0.0744    0.0197 C   0  0  0  0  0  0  0  0  0  0  0  0
    2.7274   -1.1900   -0.8381 C   0  0  0  0  0  0  0  0  0  0  0  0
    2.1451   -0.8327   -2.2310 C   0  0  0  0  0  0  0  0  0  0  0  0
    2.1711    0.7196   -2.2511 C   0  0  0  0  0  0  0  0  0  0  0  0
    2.7337    1.0413   -0.8311 C   0  0  0  0  0  0  0  0  0  0  0  0
    4.2409    0.6833   -0.7154 C   0  0  0  0  0  0  0  0  0  0  0  0
    4.2473   -0.8659   -0.7680 C   0  0  0  0  0  0  0  0  0  0  0  0
    5.0727   -1.4522   -1.9152 C   0  0  0  0  0  0  0  0  0  0  0  0
    6.1335   -1.1913   -1.8292 H   0  0  0  0  0  0  0  0  0  0  0  0
    4.9848   -2.5447   -1.9477 H   0  0  0  0  0  0  0  0  0  0  0  0
    4.7578   -1.0829   -2.8935 H   0  0  0  0  0  0  0  0  0  0  0  0
    4.9741   -1.5500    0.7841 S   0  0  0  0  0  0  0  0  0  0  0  0
    6.2285   -1.1241    0.5681 H   0  0  0  0  0  0  0  0  0  0  0  0
    4.8507    1.1444   -1.4954 H   0  0  0  0  0  0  0  0  0  0  0  0
    4.6221    1.0721    0.2382 H   0  0  0  0  0  0  0  0  0  0  0  0
    2.5086    2.0523   -0.4869 H   0  0  0  0  0  0  0  0  0  0  0  0
    3.0147    1.3024   -3.3933 C   0  0  0  0  0  0  0  0  0  0  0  0
    2.5864    1.0442   -4.3680 H   0  0  0  0  0  0  0  0  0  0  0  0
    3.0554    2.3953   -3.3214 H   0  0  0  0  0  0  0  0  0  0  0  0
    4.0431    0.9381   -3.4057 H   0  0  0  0  0  0  0  0  0  0  0  0
    0.7413    1.2673   -2.4299 C   0  0  0  0  0  0  0  0  0  0  0  0
    0.0360    0.8529   -1.7038 H   0  0  0  0  0  0  0  0  0  0  0  0
    0.7242    2.3572   -2.3257 H   0  0  0  0  0  0  0  0  0  0  0  0
    0.3573    1.0196   -3.4272 H   0  0  0  0  0  0  0  0  0  0  0  0
    1.1170   -1.2122   -2.2946 H   0  0  0  0  0  0  0  0  0  0  0  0
    2.6904   -1.2884   -3.0600 H   0  0  0  0  0  0  0  0  0  0  0  0
    2.4657   -2.2030   -0.5249 H   0  0  0  0  0  0  0  0  0  0  0  0
    2.4575   -0.0641    1.0592 H   0  0  0  0  0  0  0  0  0  0  0  0
  1  2  1  0  0  0  0
  2  3  1  0  0  0  0
  2  6  1  0  0  0  0
  2 29  1  0  0  0  0
  3  4  1  0  0  0  0
  3  8  1  0  0  0  0
  3 28  1  0  0  0  0
  4  5  1  0  0  0  0
  4 26  1  0  0  0  0
  4 27  1  0  0  0  0
  5  6  1  0  0  0  0
  5 18  1  0  0  0  0
  5 22  1  0  0  0  0
  6  7  1  0  0  0  0
  6 17  1  0  0  0  0
  7  8  1  0  0  0  0
  7 15  1  0  0  0  0
  7 16  1  0  0  0  0
  8  9  1  0  0  0  0
  8 13  1  0  0  0  0
  9 10  1  0  0  0  0
  9 11  1  0  0  0  0
  9 12  1  0  0  0  0
 13 14  1  0  0  0  0
 18 19  1  0  0  0  0
 18 20  1  0  0  0  0
 18 21  1  0  0  0  0
 22 23  1  0  0  0  0
 22 24  1  0  0  0  0
 22 25  1  0  0  0  0
M  END
$$$$
