
 OpenBabel05282315403D

 47 51  0  0  0  0  0  0  0  0999 V2000
    1.0554    0.0555   -0.0228 H   0  0  0  0  0  0  0  0  0  0  0  0
    2.1430    0.0540   -0.0225 C   0  0  0  0  0  0  0  0  0  0  0  0
    2.8414   -1.1479   -0.0222 C   0  0  0  0  0  0  0  0  0  0  0  0
    4.2412   -1.1707   -0.0214 C   0  0  0  0  0  0  0  0  0  0  0  0
    4.9169    0.0568   -0.0215 C   0  0  0  0  0  0  0  0  0  0  0  0
    4.2455    1.2779   -0.0220 C   0  0  0  0  0  0  0  0  0  0  0  0
    2.8323    1.2684   -0.0224 C   0  0  0  0  0  0  0  0  0  0  0  0
    2.2642    2.1934   -0.0227 H   0  0  0  0  0  0  0  0  0  0  0  0
    5.2381    2.3147   -0.0219 C   0  0  0  0  0  0  0  0  0  0  0  0
    6.4885    1.6966   -0.0228 C   0  0  0  0  0  0  0  0  0  0  0  0
    7.6848    2.4276   -0.0241 C   0  0  0  0  0  0  0  0  0  0  0  0
    7.5361    3.8023   -0.0161 C   0  0  0  0  0  0  0  0  0  0  0  0
    6.3325    4.4448   -0.0182 N   0  0  0  0  0  0  0  0  0  0  0  0
    5.1703    3.7242   -0.0229 C   0  0  0  0  0  0  0  0  0  0  0  0
    3.8665    4.4648   -0.0282 C   0  0  0  0  0  0  0  0  0  0  0  0
    3.2913    4.1910   -0.9196 H   0  0  0  0  0  0  0  0  0  0  0  0
    3.2840    4.1922    0.8589 H   0  0  0  0  0  0  0  0  0  0  0  0
    4.0066    5.5475   -0.0284 H   0  0  0  0  0  0  0  0  0  0  0  0
    8.7488    4.6600   -0.0030 C   0  0  0  0  0  0  0  0  0  0  0  0
    8.7125    5.8878   -0.0168 O   0  0  0  0  0  0  0  0  0  0  0  0
   10.0622    3.9880    0.0152 C   0  0  0  0  0  0  0  0  0  0  0  0
   10.2282    2.6589   -0.0139 C   0  0  0  0  0  0  0  0  0  0  0  0
    9.0033    1.7781   -0.0363 C   0  0  0  0  0  0  0  0  0  0  0  0
    9.0688    0.5497   -0.0512 O   0  0  0  0  0  0  0  0  0  0  0  0
   11.4988    2.0849   -0.0819 N   0  0  0  0  0  0  0  0  0  0  0  0
   12.4927    2.1958    1.0069 C   0  0  0  0  0  0  0  0  0  0  0  0
   13.9039    2.4413    0.4258 C   0  0  0  0  0  0  0  0  0  0  0  0
   14.2847    1.3704   -0.5211 N   0  0  0  0  0  0  0  0  0  0  0  0
   13.2966    1.3599   -1.6232 C   0  0  0  0  0  0  0  0  0  0  0  0
   11.8618    1.0841   -1.1051 C   0  0  0  0  0  0  0  0  0  0  0  0
   11.7986    0.0717   -0.6895 H   0  0  0  0  0  0  0  0  0  0  0  0
   11.1742    1.1476   -1.9568 H   0  0  0  0  0  0  0  0  0  0  0  0
   13.3082    2.3306   -2.1400 H   0  0  0  0  0  0  0  0  0  0  0  0
   13.5591    0.5938   -2.3609 H   0  0  0  0  0  0  0  0  0  0  0  0
   15.6369    1.5712   -1.0268 C   0  0  0  0  0  0  0  0  0  0  0  0
   15.9106    0.7617   -1.7124 H   0  0  0  0  0  0  0  0  0  0  0  0
   15.7475    2.5254   -1.5522 H   0  0  0  0  0  0  0  0  0  0  0  0
   16.3590    1.5410   -0.2031 H   0  0  0  0  0  0  0  0  0  0  0  0
   14.6240    2.4897    1.2507 H   0  0  0  0  0  0  0  0  0  0  0  0
   13.9174    3.4166   -0.0808 H   0  0  0  0  0  0  0  0  0  0  0  0
   12.4959    1.2684    1.5949 H   0  0  0  0  0  0  0  0  0  0  0  0
   12.2401    3.0136    1.6912 H   0  0  0  0  0  0  0  0  0  0  0  0
   10.9226    4.6486   -0.0071 H   0  0  0  0  0  0  0  0  0  0  0  0
    6.2641    0.3358   -0.0213 N   0  0  0  0  0  0  0  0  0  0  0  0
    7.0086   -0.3525   -0.0194 H   0  0  0  0  0  0  0  0  0  0  0  0
    4.7769   -2.1144   -0.0210 H   0  0  0  0  0  0  0  0  0  0  0  0
    2.2881   -2.0844   -0.0224 H   0  0  0  0  0  0  0  0  0  0  0  0
  1  2  1  0  0  0  0
  2  3  1  0  0  0  0
  2  7  2  0  0  0  0
  3  4  2  0  0  0  0
  3 47  1  0  0  0  0
  4  5  1  0  0  0  0
  4 46  1  0  0  0  0
  5  6  2  0  0  0  0
  5 44  1  0  0  0  0
  6  7  1  0  0  0  0
  6  9  1  0  0  0  0
  7  8  1  0  0  0  0
  9 10  1  0  0  0  0
  9 14  2  0  0  0  0
 10 11  2  0  0  0  0
 10 44  1  0  0  0  0
 11 12  1  0  0  0  0
 11 23  1  0  0  0  0
 12 13  2  0  0  0  0
 12 19  1  0  0  0  0
 13 14  1  0  0  0  0
 14 15  1  0  0  0  0
 15 16  1  0  0  0  0
 15 17  1  0  0  0  0
 15 18  1  0  0  0  0
 19 20  2  0  0  0  0
 19 21  1  0  0  0  0
 21 22  2  0  0  0  0
 21 43  1  0  0  0  0
 22 23  1  0  0  0  0
 22 25  1  0  0  0  0
 23 24  2  0  0  0  0
 25 26  1  0  0  0  0
 25 30  1  0  0  0  0
 26 27  1  0  0  0  0
 26 41  1  0  0  0  0
 26 42  1  0  0  0  0
 27 28  1  0  0  0  0
 27 39  1  0  0  0  0
 27 40  1  0  0  0  0
 28 29  1  0  0  0  0
 28 35  1  0  0  0  0
 29 30  1  0  0  0  0
 29 33  1  0  0  0  0
 29 34  1  0  0  0  0
 30 31  1  0  0  0  0
 30 32  1  0  0  0  0
 35 36  1  0  0  0  0
 35 37  1  0  0  0  0
 35 38  1  0  0  0  0
 44 45  1  0  0  0  0
M  END
$$$$
