
 OpenBabel05282315413D

 50 52  0  0  0  0  0  0  0  0999 V2000
    1.0401   -0.2712   -0.1710 H   0  0  0  0  0  0  0  0  0  0  0  0
    2.1209   -0.2259   -0.0556 C   0  0  0  0  0  0  0  0  0  0  0  0
    2.8816   -1.4090    0.0399 C   0  0  0  0  0  0  0  0  0  0  0  0
    4.2673   -1.3658    0.2527 C   0  0  0  0  0  0  0  0  0  0  0  0
    4.8916   -0.1485    0.1872 C   0  0  0  0  0  0  0  0  0  0  0  0
    4.1436    0.9904    0.0800 C   0  0  0  0  0  0  0  0  0  0  0  0
    2.7471    1.0127   -0.0275 C   0  0  0  0  0  0  0  0  0  0  0  0
    1.9842    2.3214   -0.1652 C   0  0  0  0  0  0  0  0  0  0  0  0
    2.0366    2.8722    0.7820 H   0  0  0  0  0  0  0  0  0  0  0  0
    2.5523    3.1888   -1.3236 C   0  0  0  0  0  0  0  0  0  0  0  0
    2.4337    2.6196   -2.2590 H   0  0  0  0  0  0  0  0  0  0  0  0
    1.9021    4.0628   -1.4448 H   0  0  0  0  0  0  0  0  0  0  0  0
    3.9680    3.5812   -1.1765 N   0  0  0  0  0  0  0  0  0  0  0  0
    4.3691    4.6406   -2.1202 C   0  0  0  0  0  0  0  0  0  0  0  0
    3.8326    6.0344   -1.7046 C   0  0  0  0  0  0  0  0  0  0  0  0
    4.1875    6.2999   -0.3069 N   0  0  0  0  0  0  0  0  0  0  0  0
    3.7826    5.3071    0.6570 C   0  0  0  0  0  0  0  0  0  0  0  0
    4.3581    3.9896    0.2043 C   0  0  0  0  0  0  0  0  0  0  0  0
    4.0596    3.2865    0.9851 H   0  0  0  0  0  0  0  0  0  0  0  0
    5.4566    3.9984    0.2437 H   0  0  0  0  0  0  0  0  0  0  0  0
    2.6883    5.2356    0.6764 H   0  0  0  0  0  0  0  0  0  0  0  0
    4.1087    5.5039    1.6843 H   0  0  0  0  0  0  0  0  0  0  0  0
    4.8561    7.4158    0.1094 C   0  0  0  0  0  0  0  0  0  0  0  0
    6.0900    7.3507    0.7610 C   0  0  0  0  0  0  0  0  0  0  0  0
    6.6896    8.5316    1.1691 C   0  0  0  0  0  0  0  0  0  0  0  0
    6.1315    9.7490    1.0068 N   0  0  0  0  0  0  0  0  0  0  0  0
    4.9295    9.7804    0.3958 C   0  0  0  0  0  0  0  0  0  0  0  0
    4.2737    8.6606   -0.0748 C   0  0  0  0  0  0  0  0  0  0  0  0
    3.2984    8.7403   -0.5388 H   0  0  0  0  0  0  0  0  0  0  0  0
    4.4785   10.7608    0.2935 H   0  0  0  0  0  0  0  0  0  0  0  0
    7.6643    8.5301    1.6485 H   0  0  0  0  0  0  0  0  0  0  0  0
    6.5975    6.4059    0.9273 H   0  0  0  0  0  0  0  0  0  0  0  0
    2.7400    6.0390   -1.7872 H   0  0  0  0  0  0  0  0  0  0  0  0
    4.2209    6.7957   -2.3848 H   0  0  0  0  0  0  0  0  0  0  0  0
    5.4679    4.6665   -2.1331 H   0  0  0  0  0  0  0  0  0  0  0  0
    4.0652    4.3858   -3.1431 H   0  0  0  0  0  0  0  0  0  0  0  0
    0.5828    2.1079   -0.3786 O   0  0  0  0  0  0  0  0  0  0  0  0
    0.1577    2.9832   -0.3845 H   0  0  0  0  0  0  0  0  0  0  0  0
    4.7997    1.8381    0.0546 H   0  0  0  0  0  0  0  0  0  0  0  0
    5.9650    0.0039    0.2340 H   0  0  0  0  0  0  0  0  0  0  0  0
    5.0505   -2.5490    0.4503 N   0  0  0  0  0  0  0  0  0  0  0  0
    4.5405   -3.3669    0.7683 H   0  0  0  0  0  0  0  0  0  0  0  0
    6.6660   -2.3501    0.9438 S   0  0  0  0  0  0  0  0  0  0  0  0
    7.4278   -1.9598   -0.2170 O   0  0  0  0  0  0  0  0  0  0  0  0
    6.7043   -1.5539    2.1627 O   0  0  0  0  0  0  0  0  0  0  0  0
    7.1681   -3.9811    1.3879 C   0  0  0  0  0  0  0  0  0  0  0  0
    6.6055   -4.3060    2.2627 H   0  0  0  0  0  0  0  0  0  0  0  0
    7.0191   -4.6354    0.5308 H   0  0  0  0  0  0  0  0  0  0  0  0
    8.2327   -3.9240    1.6336 H   0  0  0  0  0  0  0  0  0  0  0  0
    2.3585   -2.3509   -0.0677 H   0  0  0  0  0  0  0  0  0  0  0  0
  1  2  1  0  0  0  0
  2  3  1  0  0  0  0
  2  7  2  0  0  0  0
  3  4  2  0  0  0  0
  3 50  1  0  0  0  0
  4  5  1  0  0  0  0
  4 41  1  0  0  0  0
  5  6  2  0  0  0  0
  5 40  1  0  0  0  0
  6  7  1  0  0  0  0
  6 39  1  0  0  0  0
  7  8  1  0  0  0  0
  8  9  1  0  0  0  0
  8 10  1  0  0  0  0
  8 37  1  0  0  0  0
 10 11  1  0  0  0  0
 10 12  1  0  0  0  0
 10 13  1  0  0  0  0
 13 14  1  0  0  0  0
 13 18  1  0  0  0  0
 14 15  1  0  0  0  0
 14 35  1  0  0  0  0
 14 36  1  0  0  0  0
 15 16  1  0  0  0  0
 15 33  1  0  0  0  0
 15 34  1  0  0  0  0
 16 17  1  0  0  0  0
 16 23  1  0  0  0  0
 17 18  1  0  0  0  0
 17 21  1  0  0  0  0
 17 22  1  0  0  0  0
 18 19  1  0  0  0  0
 18 20  1  0  0  0  0
 23 24  1  0  0  0  0
 23 28  2  0  0  0  0
 24 25  2  0  0  0  0
 24 32  1  0  0  0  0
 25 26  1  0  0  0  0
 25 31  1  0  0  0  0
 26 27  2  0  0  0  0
 27 28  1  0  0  0  0
 27 30  1  0  0  0  0
 28 29  1  0  0  0  0
 37 38  1  0  0  0  0
 41 42  1  0  0  0  0
 41 43  1  0  0  0  0
 43 44  2  0  0  0  0
 43 45  2  0  0  0  0
 43 46  1  0  0  0  0
 46 47  1  0  0  0  0
 46 48  1  0  0  0  0
 46 49  1  0  0  0  0
M  END
$$$$
