
 OpenBabel05282315413D

 26 27  0  0  0  0  0  0  0  0999 V2000
    0.9138    0.0734    0.0565 H   0  0  0  0  0  0  0  0  0  0  0  0
    1.9989    0.0438    0.0606 C   0  0  0  0  0  0  0  0  0  0  0  0
    2.6819   -1.1754    0.0642 C   0  0  0  0  0  0  0  0  0  0  0  0
    4.0545   -1.1048    0.0709 C   0  0  0  0  0  0  0  0  0  0  0  0
    4.6846    0.1166    0.0739 C   0  0  0  0  0  0  0  0  0  0  0  0
    4.0784    1.3105    0.0690 N   0  0  0  0  0  0  0  0  0  0  0  0
    2.7277    1.2403    0.0618 C   0  0  0  0  0  0  0  0  0  0  0  0
    2.2194    2.2011    0.0561 H   0  0  0  0  0  0  0  0  0  0  0  0
    6.0739    0.0078    0.0817 O   0  0  0  0  0  0  0  0  0  0  0  0
    6.2562   -1.3745    0.0825 C   0  0  0  0  0  0  0  0  0  0  0  0
    7.3780   -1.8688    0.0887 O   0  0  0  0  0  0  0  0  0  0  0  0
    5.0463   -2.0566    0.0756 N   0  0  0  0  0  0  0  0  0  0  0  0
    4.8113   -3.4875    0.0722 C   0  0  0  0  0  0  0  0  0  0  0  0
    4.2082   -3.7371    0.9543 H   0  0  0  0  0  0  0  0  0  0  0  0
    4.2180   -3.7346   -0.8172 H   0  0  0  0  0  0  0  0  0  0  0  0
    6.0972   -4.3027    0.0780 C   0  0  0  0  0  0  0  0  0  0  0  0
    6.6941   -4.0429   -0.8054 H   0  0  0  0  0  0  0  0  0  0  0  0
    6.6844   -4.0453    0.9686 H   0  0  0  0  0  0  0  0  0  0  0  0
    5.8561   -5.8000    0.0747 C   0  0  0  0  0  0  0  0  0  0  0  0
    5.2653   -6.0796    0.9547 H   0  0  0  0  0  0  0  0  0  0  0  0
    5.2750   -6.0773   -0.8125 H   0  0  0  0  0  0  0  0  0  0  0  0
    7.1959   -6.5158    0.0812 C   0  0  0  0  0  0  0  0  0  0  0  0
    7.7889   -6.2756   -0.8067 H   0  0  0  0  0  0  0  0  0  0  0  0
    7.7791   -6.2779    0.9761 H   0  0  0  0  0  0  0  0  0  0  0  0
    6.9057   -8.4347    0.0771 Br  0  0  0  0  0  0  0  0  0  0  0  0
    2.1449   -2.1156    0.0617 H   0  0  0  0  0  0  0  0  0  0  0  0
  1  2  1  0  0  0  0
  2  3  1  0  0  0  0
  2  7  2  0  0  0  0
  3  4  2  0  0  0  0
  3 26  1  0  0  0  0
  4  5  1  0  0  0  0
  4 12  1  0  0  0  0
  5  6  2  0  0  0  0
  5  9  1  0  0  0  0
  6  7  1  0  0  0  0
  7  8  1  0  0  0  0
  9 10  1  0  0  0  0
 10 11  2  0  0  0  0
 10 12  1  0  0  0  0
 12 13  1  0  0  0  0
 13 14  1  0  0  0  0
 13 15  1  0  0  0  0
 13 16  1  0  0  0  0
 16 17  1  0  0  0  0
 16 18  1  0  0  0  0
 16 19  1  0  0  0  0
 19 20  1  0  0  0  0
 19 21  1  0  0  0  0
 19 22  1  0  0  0  0
 22 23  1  0  0  0  0
 22 24  1  0  0  0  0
 22 25  1  0  0  0  0
M  END
$$$$
