
 OpenBabel05282315423D

 27 26  0  0  0  0  0  0  0  0999 V2000
    0.9745   -0.0725   -0.0772 H   0  0  0  0  0  0  0  0  0  0  0  0
    2.0684   -0.0646   -0.0683 C   0  0  0  0  0  0  0  0  0  0  0  0
    2.4173   -1.0880    0.1087 H   0  0  0  0  0  0  0  0  0  0  0  0
    2.4171    0.2378   -1.0620 H   0  0  0  0  0  0  0  0  0  0  0  0
    2.5862    0.8804    1.0017 C   0  0  0  0  0  0  0  0  0  0  0  0
    2.2259    1.8973    0.8142 H   0  0  0  0  0  0  0  0  0  0  0  0
    2.2262    0.5682    1.9876 H   0  0  0  0  0  0  0  0  0  0  0  0
    4.1062    0.8804    1.0017 C   0  0  0  0  0  0  0  0  0  0  0  0
    5.4101    0.8804    1.0017 C   0  0  0  0  0  0  0  0  0  0  0  0
    6.9301    0.8804    1.0017 C   0  0  0  0  0  0  0  0  0  0  0  0
    7.2691    1.9231    0.9877 H   0  0  0  0  0  0  0  0  0  0  0  0
    7.4817    0.1353    2.2734 C   0  0  0  0  0  0  0  0  0  0  0  0
    6.9735   -1.3199    2.2818 C   0  0  0  0  0  0  0  0  0  0  0  0
    7.2616   -1.8511    1.3693 H   0  0  0  0  0  0  0  0  0  0  0  0
    7.3706   -1.8889    3.1269 H   0  0  0  0  0  0  0  0  0  0  0  0
    5.8821   -1.3574    2.3752 H   0  0  0  0  0  0  0  0  0  0  0  0
    9.0209    0.1538    2.2272 C   0  0  0  0  0  0  0  0  0  0  0  0
    9.3883    1.1868    2.2361 H   0  0  0  0  0  0  0  0  0  0  0  0
    9.4615   -0.3445    3.0956 H   0  0  0  0  0  0  0  0  0  0  0  0
    9.4177   -0.3534    1.3441 H   0  0  0  0  0  0  0  0  0  0  0  0
    7.0367    0.8628    3.4415 O   0  0  0  0  0  0  0  0  0  0  0  0
    7.4034    0.3254    4.7056 C   0  0  0  0  0  0  0  0  0  0  0  0
    7.0097   -0.6839    4.8436 H   0  0  0  0  0  0  0  0  0  0  0  0
    8.4874    0.3331    4.8398 H   0  0  0  0  0  0  0  0  0  0  0  0
    6.9723    0.9566    5.4871 H   0  0  0  0  0  0  0  0  0  0  0  0
    7.3435    0.2510   -0.2121 O   0  0  0  0  0  0  0  0  0  0  0  0
    8.3128    0.3013   -0.2582 H   0  0  0  0  0  0  0  0  0  0  0  0
  1  2  1  0  0  0  0
  2  3  1  0  0  0  0
  2  4  1  0  0  0  0
  2  5  1  0  0  0  0
  5  6  1  0  0  0  0
  5  7  1  0  0  0  0
  5  8  1  0  0  0  0
  8  9  3  0  0  0  0
  9 10  1  0  0  0  0
 10 11  1  0  0  0  0
 10 12  1  0  0  0  0
 10 26  1  0  0  0  0
 12 13  1  0  0  0  0
 12 17  1  0  0  0  0
 12 21  1  0  0  0  0
 13 14  1  0  0  0  0
 13 15  1  0  0  0  0
 13 16  1  0  0  0  0
 17 18  1  0  0  0  0
 17 19  1  0  0  0  0
 17 20  1  0  0  0  0
 21 22  1  0  0  0  0
 22 23  1  0  0  0  0
 22 24  1  0  0  0  0
 22 25  1  0  0  0  0
 26 27  1  0  0  0  0
M  END
$$$$
