
 OpenBabel05282315423D

 50 52  0  0  0  0  0  0  0  0999 V2000
    0.9735    0.0860    0.0236 H   0  0  0  0  0  0  0  0  0  0  0  0
    2.0608    0.0590    0.0211 C   0  0  0  0  0  0  0  0  0  0  0  0
    2.7843    1.2463    0.0431 C   0  0  0  0  0  0  0  0  0  0  0  0
    4.1815    1.2369    0.0377 C   0  0  0  0  0  0  0  0  0  0  0  0
    4.8652    0.0297    0.0174 C   0  0  0  0  0  0  0  0  0  0  0  0
    4.1370   -1.1649    0.0174 C   0  0  0  0  0  0  0  0  0  0  0  0
    2.7392   -1.1534    0.0037 C   0  0  0  0  0  0  0  0  0  0  0  0
    2.1501   -2.0613   -0.0159 H   0  0  0  0  0  0  0  0  0  0  0  0
    5.0534   -2.6838    0.0729 S   0  0  0  0  0  0  0  0  0  0  0  0
    5.7850   -2.7579   -1.1773 O   0  0  0  0  0  0  0  0  0  0  0  0
    5.7409   -2.6903    1.3501 O   0  0  0  0  0  0  0  0  0  0  0  0
    3.8574   -4.0098    0.0919 C   0  0  0  0  0  0  0  0  0  0  0  0
    3.2191   -3.8816    0.9727 H   0  0  0  0  0  0  0  0  0  0  0  0
    3.2486   -3.9319   -0.8149 H   0  0  0  0  0  0  0  0  0  0  0  0
    4.5486   -5.3646    0.1417 C   0  0  0  0  0  0  0  0  0  0  0  0
    5.2101   -5.4758   -0.7247 H   0  0  0  0  0  0  0  0  0  0  0  0
    5.1780   -5.4287    1.0364 H   0  0  0  0  0  0  0  0  0  0  0  0
    3.5410   -6.5003    0.1536 C   0  0  0  0  0  0  0  0  0  0  0  0
    2.8860   -6.4336    1.0282 H   0  0  0  0  0  0  0  0  0  0  0  0
    2.9175   -6.4798   -0.7459 H   0  0  0  0  0  0  0  0  0  0  0  0
    4.0592   -7.4634    0.1879 H   0  0  0  0  0  0  0  0  0  0  0  0
    5.9534    0.0265    0.0102 H   0  0  0  0  0  0  0  0  0  0  0  0
    4.9106    2.4643    0.0603 C   0  0  0  0  0  0  0  0  0  0  0  0
    5.4333    3.5421    0.0660 C   0  0  0  0  0  0  0  0  0  0  0  0
    5.9844    4.8724    0.0196 C   0  0  0  0  0  0  0  0  0  0  0  0
    7.3912    4.9966   -0.0984 C   0  0  0  0  0  0  0  0  0  0  0  0
    7.9714    6.2684   -0.1991 C   0  0  0  0  0  0  0  0  0  0  0  0
    7.1703    7.4083   -0.1833 C   0  0  0  0  0  0  0  0  0  0  0  0
    5.7835    7.2849   -0.0550 C   0  0  0  0  0  0  0  0  0  0  0  0
    5.1710    6.0235    0.0538 C   0  0  0  0  0  0  0  0  0  0  0  0
    3.8005    6.0960    0.1761 O   0  0  0  0  0  0  0  0  0  0  0  0
    3.0629    4.8870    0.3036 C   0  0  0  0  0  0  0  0  0  0  0  0
    3.1799    4.3022   -0.6170 H   0  0  0  0  0  0  0  0  0  0  0  0
    3.3818    4.3526    1.2084 H   0  0  0  0  0  0  0  0  0  0  0  0
    1.5685    5.0869    0.4532 C   0  0  0  0  0  0  0  0  0  0  0  0
    0.9600    6.1418    0.4623 O   0  0  0  0  0  0  0  0  0  0  0  0
    0.9001    3.9134    0.5726 O   0  0  0  0  0  0  0  0  0  0  0  0
   -0.0476    4.1512    0.6491 H   0  0  0  0  0  0  0  0  0  0  0  0
    5.1747    8.1886   -0.0454 H   0  0  0  0  0  0  0  0  0  0  0  0
    7.6277    8.3914   -0.2780 H   0  0  0  0  0  0  0  0  0  0  0  0
    9.0480    6.3726   -0.3189 H   0  0  0  0  0  0  0  0  0  0  0  0
    8.2295    3.7938   -0.2032 C   0  0  0  0  0  0  0  0  0  0  0  0
    8.1204    2.7850   -1.1420 C   0  0  0  0  0  0  0  0  0  0  0  0
    9.0119    1.7098   -0.8985 C   0  0  0  0  0  0  0  0  0  0  0  0
    9.7927    1.9365    0.2117 C   0  0  0  0  0  0  0  0  0  0  0  0
    9.4320    3.4360    0.9602 S   0  0  0  0  0  0  0  0  0  0  0  0
   10.5533    1.2861    0.6203 H   0  0  0  0  0  0  0  0  0  0  0  0
    9.0688    0.8162   -1.5064 H   0  0  0  0  0  0  0  0  0  0  0  0
    7.3922    2.8066   -1.9443 H   0  0  0  0  0  0  0  0  0  0  0  0
    2.2353    2.1760    0.0620 H   0  0  0  0  0  0  0  0  0  0  0  0
  1  2  1  0  0  0  0
  2  3  1  0  0  0  0
  2  7  2  0  0  0  0
  3  4  2  0  0  0  0
  3 50  1  0  0  0  0
  4  5  1  0  0  0  0
  4 23  1  0  0  0  0
  5  6  2  0  0  0  0
  5 22  1  0  0  0  0
  6  7  1  0  0  0  0
  6  9  1  0  0  0  0
  7  8  1  0  0  0  0
  9 10  2  0  0  0  0
  9 11  2  0  0  0  0
  9 12  1  0  0  0  0
 12 13  1  0  0  0  0
 12 14  1  0  0  0  0
 12 15  1  0  0  0  0
 15 16  1  0  0  0  0
 15 17  1  0  0  0  0
 15 18  1  0  0  0  0
 18 19  1  0  0  0  0
 18 20  1  0  0  0  0
 18 21  1  0  0  0  0
 23 24  3  0  0  0  0
 24 25  1  0  0  0  0
 25 26  1  0  0  0  0
 25 30  2  0  0  0  0
 26 27  2  0  0  0  0
 26 42  1  0  0  0  0
 27 28  1  0  0  0  0
 27 41  1  0  0  0  0
 28 29  2  0  0  0  0
 28 40  1  0  0  0  0
 29 30  1  0  0  0  0
 29 39  1  0  0  0  0
 30 31  1  0  0  0  0
 31 32  1  0  0  0  0
 32 33  1  0  0  0  0
 32 34  1  0  0  0  0
 32 35  1  0  0  0  0
 35 36  2  0  0  0  0
 35 37  1  0  0  0  0
 37 38  1  0  0  0  0
 42 43  2  0  0  0  0
 42 46  1  0  0  0  0
 43 44  1  0  0  0  0
 43 49  1  0  0  0  0
 44 45  2  0  0  0  0
 44 48  1  0  0  0  0
 45 46  1  0  0  0  0
 45 47  1  0  0  0  0
M  END
$$$$
