
 OpenBabel05282315423D

 45 47  0  0  0  0  0  0  0  0999 V2000
    0.8304    0.0132   -0.0711 H   0  0  0  0  0  0  0  0  0  0  0  0
    1.9123    0.0146    0.0154 C   0  0  0  0  0  0  0  0  0  0  0  0
    2.5840   -1.1882    0.0823 C   0  0  0  0  0  0  0  0  0  0  0  0
    3.9605   -1.1845    0.2497 C   0  0  0  0  0  0  0  0  0  0  0  0
    4.7416   -0.0057    0.2580 C   0  0  0  0  0  0  0  0  0  0  0  0
    4.0319    1.2043    0.1948 C   0  0  0  0  0  0  0  0  0  0  0  0
    2.6301    1.2067    0.0885 C   0  0  0  0  0  0  0  0  0  0  0  0
    2.0840    2.1475    0.0656 H   0  0  0  0  0  0  0  0  0  0  0  0
    4.5176    2.1729    0.2624 H   0  0  0  0  0  0  0  0  0  0  0  0
    6.2344   -0.0763    0.4171 C   0  0  0  0  0  0  0  0  0  0  0  0
    6.7290   -1.3185    0.6855 C   0  0  0  0  0  0  0  0  0  0  0  0
    7.7174   -1.5574    1.0353 H   0  0  0  0  0  0  0  0  0  0  0  0
    6.1917   -2.2406    0.5267 H   0  0  0  0  0  0  0  0  0  0  0  0
    7.0542    1.2321    0.2999 C   0  0  0  0  0  0  0  0  0  0  0  0
    6.7831    1.7704   -0.6202 H   0  0  0  0  0  0  0  0  0  0  0  0
    6.8542    1.8828    1.1611 H   0  0  0  0  0  0  0  0  0  0  0  0
    8.5540    1.1145    0.1925 N   0  3  0  0  0  0  0  0  0  0  0  0
    9.3644    2.2001    0.2814 C   0  0  0  0  0  0  0  0  0  0  0  0
   10.7461    2.0492    0.0728 C   0  0  0  0  0  0  0  0  0  0  0  0
   11.2906    0.7626   -0.0039 C   0  0  0  0  0  0  0  0  0  0  0  0
   10.4453   -0.3155    0.1035 C   0  0  0  0  0  0  0  0  0  0  0  0
    9.1276   -0.0718   -0.0772 C   0  0  0  0  0  0  0  0  0  0  0  0
    8.5420   -0.8535   -0.5299 H   0  0  0  0  0  0  0  0  0  0  0  0
   10.8003   -1.3448    0.0988 H   0  0  0  0  0  0  0  0  0  0  0  0
   12.7288    0.4686   -0.3522 C   0  0  0  0  0  0  0  0  0  0  0  0
   13.3927   -0.2740    0.8151 C   0  0  0  0  0  0  0  0  0  0  0  0
   14.8148   -0.6842    0.4731 C   0  0  0  0  0  0  0  0  0  0  0  0
   14.8642   -1.5142   -0.8071 C   0  0  0  0  0  0  0  0  0  0  0  0
   14.2252   -0.7763   -1.9798 C   0  0  0  0  0  0  0  0  0  0  0  0
   12.7957   -0.3738   -1.6539 C   0  0  0  0  0  0  0  0  0  0  0  0
   12.2035   -1.2962   -1.5697 H   0  0  0  0  0  0  0  0  0  0  0  0
   12.3576    0.1819   -2.4930 H   0  0  0  0  0  0  0  0  0  0  0  0
   14.2338   -1.4156   -2.8701 H   0  0  0  0  0  0  0  0  0  0  0  0
   14.8054    0.1217   -2.2171 H   0  0  0  0  0  0  0  0  0  0  0  0
   14.3410   -2.4662   -0.6466 H   0  0  0  0  0  0  0  0  0  0  0  0
   15.9042   -1.7550   -1.0474 H   0  0  0  0  0  0  0  0  0  0  0  0
   15.2309   -1.2610    1.3055 H   0  0  0  0  0  0  0  0  0  0  0  0
   15.4285    0.2155    0.3550 H   0  0  0  0  0  0  0  0  0  0  0  0
   13.3823    0.3589    1.7102 H   0  0  0  0  0  0  0  0  0  0  0  0
   12.8319   -1.1815    1.0774 H   0  0  0  0  0  0  0  0  0  0  0  0
   13.2563    1.4126   -0.5316 H   0  0  0  0  0  0  0  0  0  0  0  0
   11.3852    2.9210   -0.0489 H   0  0  0  0  0  0  0  0  0  0  0  0
    8.9078    3.1768    0.4263 H   0  0  0  0  0  0  0  0  0  0  0  0
    4.3733   -2.1744    0.4057 H   0  0  0  0  0  0  0  0  0  0  0  0
    2.0606   -2.1391    0.0263 H   0  0  0  0  0  0  0  0  0  0  0  0
  1  2  1  0  0  0  0
  2  3  1  0  0  0  0
  2  7  2  0  0  0  0
  3  4  2  0  0  0  0
  3 45  1  0  0  0  0
  4  5  1  0  0  0  0
  4 44  1  0  0  0  0
  5  6  2  0  0  0  0
  5 10  1  0  0  0  0
  6  7  1  0  0  0  0
  6  9  1  0  0  0  0
  7  8  1  0  0  0  0
 10 11  2  0  0  0  0
 10 14  1  0  0  0  0
 11 12  1  0  0  0  0
 11 13  1  0  0  0  0
 14 15  1  0  0  0  0
 14 16  1  0  0  0  0
 14 17  1  0  0  0  0
 17 18  1  0  0  0  0
 17 22  2  0  0  0  0
 18 19  2  0  0  0  0
 18 43  1  0  0  0  0
 19 20  1  0  0  0  0
 19 42  1  0  0  0  0
 20 21  2  0  0  0  0
 20 25  1  0  0  0  0
 21 22  1  0  0  0  0
 21 24  1  0  0  0  0
 22 23  1  0  0  0  0
 25 26  1  0  0  0  0
 25 30  1  0  0  0  0
 25 41  1  0  0  0  0
 26 27  1  0  0  0  0
 26 39  1  0  0  0  0
 26 40  1  0  0  0  0
 27 28  1  0  0  0  0
 27 37  1  0  0  0  0
 27 38  1  0  0  0  0
 28 29  1  0  0  0  0
 28 35  1  0  0  0  0
 28 36  1  0  0  0  0
 29 30  1  0  0  0  0
 29 33  1  0  0  0  0
 29 34  1  0  0  0  0
 30 31  1  0  0  0  0
 30 32  1  0  0  0  0
M  CHG  1  17   1
M  END
$$$$
