
 OpenBabel05282315433D

 45 49  0  0  0  0  0  0  0  0999 V2000
    1.0139   -0.2318    0.0507 H   0  0  0  0  0  0  0  0  0  0  0  0
    2.0982   -0.2091    0.0319 C   0  0  0  0  0  0  0  0  0  0  0  0
    2.7246    1.0126    0.0327 C   0  0  0  0  0  0  0  0  0  0  0  0
    4.1012    1.1110   -0.0337 C   0  0  0  0  0  0  0  0  0  0  0  0
    4.8843    0.0024   -0.0406 N   0  0  0  0  0  0  0  0  0  0  0  0
    4.2756   -1.2155   -0.0138 C   0  0  0  0  0  0  0  0  0  0  0  0
    2.8701   -1.3462    0.0123 C   0  0  0  0  0  0  0  0  0  0  0  0
    2.2218   -2.5812    0.0273 C   0  0  0  0  0  0  0  0  0  0  0  0
    2.9584   -3.7606    0.0223 C   0  0  0  0  0  0  0  0  0  0  0  0
    4.3547   -3.6592   -0.0019 C   0  0  0  0  0  0  0  0  0  0  0  0
    4.9946   -2.4061   -0.0201 C   0  0  0  0  0  0  0  0  0  0  0  0
    6.0808   -2.3692   -0.0440 H   0  0  0  0  0  0  0  0  0  0  0  0
    4.9599   -4.5636   -0.0174 H   0  0  0  0  0  0  0  0  0  0  0  0
    2.2765   -5.0556    0.0549 C   0  0  0  0  0  0  0  0  0  0  0  0
    2.5076   -5.9516    1.1098 C   0  0  0  0  0  0  0  0  0  0  0  0
    1.8721   -7.1928    1.1462 C   0  0  0  0  0  0  0  0  0  0  0  0
    0.9801   -7.5445    0.1316 C   0  0  0  0  0  0  0  0  0  0  0  0
    0.7171   -6.6553   -0.9259 C   0  0  0  0  0  0  0  0  0  0  0  0
    1.3729   -5.4192   -0.9596 C   0  0  0  0  0  0  0  0  0  0  0  0
    1.1894   -4.7357   -1.7877 H   0  0  0  0  0  0  0  0  0  0  0  0
   -0.2108   -7.0737   -2.0383 C   0  0  0  0  0  0  0  0  0  0  0  0
   -1.2915   -7.9881   -1.4753 C   0  0  0  0  0  0  0  0  0  0  0  0
   -0.6906   -9.0829   -0.7464 N   0  0  0  0  0  0  0  0  0  0  0  0
    0.3255   -8.8818    0.1573 C   0  0  0  0  0  0  0  0  0  0  0  0
    0.6867   -9.7664    0.9254 O   0  0  0  0  0  0  0  0  0  0  0  0
   -1.1213   -9.9991   -0.7289 H   0  0  0  0  0  0  0  0  0  0  0  0
   -1.9143   -8.4043   -2.2719 H   0  0  0  0  0  0  0  0  0  0  0  0
   -1.9396   -7.4389   -0.7802 H   0  0  0  0  0  0  0  0  0  0  0  0
    0.3757   -7.6114   -2.7937 H   0  0  0  0  0  0  0  0  0  0  0  0
   -0.6722   -6.2037   -2.5171 H   0  0  0  0  0  0  0  0  0  0  0  0
    2.0765   -7.8814    1.9628 H   0  0  0  0  0  0  0  0  0  0  0  0
    3.1867   -5.6808    1.9164 H   0  0  0  0  0  0  0  0  0  0  0  0
    1.1336   -2.6221    0.0598 H   0  0  0  0  0  0  0  0  0  0  0  0
    4.7685    2.4251   -0.0946 C   0  0  0  0  0  0  0  0  0  0  0  0
    4.2126    3.6491   -0.0494 C   0  0  0  0  0  0  0  0  0  0  0  0
    4.9729    4.9311    0.0613 C   0  0  0  0  0  0  0  0  0  0  0  0
    6.4166    5.4004   -0.5987 S   0  0  0  0  0  0  0  0  0  0  0  0
    4.1046    5.7728    0.7127 N   0  0  0  0  0  0  0  0  0  0  0  0
    2.8273    5.3220    0.5429 C   0  0  0  0  0  0  0  0  0  0  0  0
    1.7900    5.9437    0.7264 O   0  0  0  0  0  0  0  0  0  0  0  0
    2.9037    4.0403    0.0501 N   0  0  0  0  0  0  0  0  0  0  0  0
    2.0556    3.5594   -0.1847 H   0  0  0  0  0  0  0  0  0  0  0  0
    4.2995    6.7221    0.9799 H   0  0  0  0  0  0  0  0  0  0  0  0
    5.8572    2.3486   -0.0776 H   0  0  0  0  0  0  0  0  0  0  0  0
    2.0715    1.8522    0.0944 H   0  0  0  0  0  0  0  0  0  0  0  0
  1  2  1  0  0  0  0
  2  3  1  0  0  0  0
  2  7  2  0  0  0  0
  3  4  2  0  0  0  0
  3 45  1  0  0  0  0
  4  5  1  0  0  0  0
  4 34  1  0  0  0  0
  5  6  2  0  0  0  0
  6  7  1  0  0  0  0
  6 11  1  0  0  0  0
  7  8  1  0  0  0  0
  8  9  2  0  0  0  0
  8 33  1  0  0  0  0
  9 10  1  0  0  0  0
  9 14  1  0  0  0  0
 10 11  2  0  0  0  0
 10 13  1  0  0  0  0
 11 12  1  0  0  0  0
 14 15  1  0  0  0  0
 14 19  2  0  0  0  0
 15 16  2  0  0  0  0
 15 32  1  0  0  0  0
 16 17  1  0  0  0  0
 16 31  1  0  0  0  0
 17 18  2  0  0  0  0
 17 24  1  0  0  0  0
 18 19  1  0  0  0  0
 18 21  1  0  0  0  0
 19 20  1  0  0  0  0
 21 22  1  0  0  0  0
 21 29  1  0  0  0  0
 21 30  1  0  0  0  0
 22 23  1  0  0  0  0
 22 27  1  0  0  0  0
 22 28  1  0  0  0  0
 23 24  1  0  0  0  0
 23 26  1  0  0  0  0
 24 25  2  0  0  0  0
 34 35  2  0  0  0  0
 34 44  1  0  0  0  0
 35 36  1  0  0  0  0
 35 41  1  0  0  0  0
 36 37  2  0  0  0  0
 36 38  1  0  0  0  0
 38 39  1  0  0  0  0
 38 43  1  0  0  0  0
 39 40  2  0  0  0  0
 39 41  1  0  0  0  0
 41 42  1  0  0  0  0
M  END
$$$$
