
 OpenBabel05282315433D

 38 41  0  0  0  0  0  0  0  0999 V2000
    0.8969   -0.0895    0.0433 H   0  0  0  0  0  0  0  0  0  0  0  0
    1.9789   -0.0703    0.0433 C   0  0  0  0  0  0  0  0  0  0  0  0
    2.5973    1.1168   -0.0202 C   0  0  0  0  0  0  0  0  0  0  0  0
    4.0742    1.1880   -0.0347 C   0  0  0  0  0  0  0  0  0  0  0  0
    4.6594    2.2486    0.1430 O   0  0  0  0  0  0  0  0  0  0  0  0
    4.8024   -0.0663   -0.3100 C   0  0  0  0  0  0  0  0  0  0  0  0
    4.1806   -1.2509   -0.2300 C   0  0  0  0  0  0  0  0  0  0  0  0
    2.7383   -1.3228    0.1193 C   0  0  0  0  0  0  0  0  0  0  0  0
    2.0976   -2.4644    0.4686 C   0  0  0  0  0  0  0  0  0  0  0  0
    2.6739   -3.3821    0.5404 H   0  0  0  0  0  0  0  0  0  0  0  0
    0.7507   -2.7193    0.7539 N   0  0  0  0  0  0  0  0  0  0  0  0
    0.1491   -1.8969    0.7394 H   0  0  0  0  0  0  0  0  0  0  0  0
    0.2036   -3.9379    1.0993 C   0  0  0  0  0  0  0  0  0  0  0  0
    0.6234   -4.8032    2.0891 C   0  0  0  0  0  0  0  0  0  0  0  0
   -0.4963   -5.6849    2.2966 C   0  0  0  0  0  0  0  0  0  0  0  0
   -0.9205   -6.3926    1.1879 C   0  0  0  0  0  0  0  0  0  0  0  0
   -1.2732   -4.6808    0.3468 S   0  0  0  0  0  0  0  0  0  0  0  0
   -1.7633   -7.7533    1.4873 N   0  0  0  0  0  0  0  0  0  0  0  0
   -1.8567   -8.4170    3.0769 C   0  0  0  0  0  0  0  0  0  0  0  0
   -0.5473   -8.0438    3.4302 C   0  0  0  0  0  0  0  0  0  0  0  0
   -1.1324   -6.4145    3.4257 C   0  0  0  0  0  0  0  0  0  0  0  0
   -2.8890   -6.3373    2.5366 C   0  0  0  0  0  0  0  0  0  0  0  0
   -3.1381   -7.4786    1.4601 C   0  0  0  0  0  0  0  0  0  0  0  0
   -3.3555   -7.3645    0.3925 H   0  0  0  0  0  0  0  0  0  0  0  0
   -3.7615   -8.3295    1.8121 H   0  0  0  0  0  0  0  0  0  0  0  0
   -3.1330   -5.5148    1.8453 H   0  0  0  0  0  0  0  0  0  0  0  0
   -3.7262   -6.2530    3.2380 H   0  0  0  0  0  0  0  0  0  0  0  0
   -0.0303   -6.4188    3.5414 H   0  0  0  0  0  0  0  0  0  0  0  0
   -0.1113   -8.4014    4.3660 H   0  0  0  0  0  0  0  0  0  0  0  0
    0.0730   -8.4184    2.5869 H   0  0  0  0  0  0  0  0  0  0  0  0
   -2.2615   -9.4206    3.1547 H   0  0  0  0  0  0  0  0  0  0  0  0
   -2.4561   -7.8934    3.9065 H   0  0  0  0  0  0  0  0  0  0  0  0
    1.8298   -4.5905    2.8313 C   0  0  0  0  0  0  0  0  0  0  0  0
    2.9172   -4.3946    3.2966 N   0  0  0  0  0  0  0  0  0  0  0  0
    4.9162   -2.3845   -0.5263 O   0  0  0  0  0  0  0  0  0  0  0  0
    4.3825   -3.1881   -0.4615 H   0  0  0  0  0  0  0  0  0  0  0  0
    5.8472    0.0286   -0.5765 H   0  0  0  0  0  0  0  0  0  0  0  0
    2.0658    2.0584   -0.0605 H   0  0  0  0  0  0  0  0  0  0  0  0
  1  2  1  0  0  0  0
  2  3  2  0  0  0  0
  2  8  1  0  0  0  0
  3  4  1  0  0  0  0
  3 38  1  0  0  0  0
  4  5  2  0  0  0  0
  4  6  1  0  0  0  0
  6  7  2  0  0  0  0
  6 37  1  0  0  0  0
  7  8  1  0  0  0  0
  7 35  1  0  0  0  0
  8  9  2  0  0  0  0
  9 10  1  0  0  0  0
  9 11  1  0  0  0  0
 11 12  1  0  0  0  0
 11 13  1  0  0  0  0
 13 14  2  0  0  0  0
 13 17  1  0  0  0  0
 14 15  1  0  0  0  0
 14 33  1  0  0  0  0
 15 16  2  0  0  0  0
 15 21  1  0  0  0  0
 16 17  1  0  0  0  0
 16 18  1  0  0  0  0
 18 19  1  0  0  0  0
 18 23  1  0  0  0  0
 19 20  1  0  0  0  0
 19 31  1  0  0  0  0
 19 32  1  0  0  0  0
 20 21  1  0  0  0  0
 20 29  1  0  0  0  0
 20 30  1  0  0  0  0
 21 22  1  0  0  0  0
 21 28  1  0  0  0  0
 22 23  1  0  0  0  0
 22 26  1  0  0  0  0
 22 27  1  0  0  0  0
 23 24  1  0  0  0  0
 23 25  1  0  0  0  0
 33 34  3  0  0  0  0
 35 36  1  0  0  0  0
M  END
$$$$
