
 OpenBabel05282315433D

 46 49  0  0  0  0  0  0  0  0999 V2000
    1.0277   -0.0092   -0.1027 H   0  0  0  0  0  0  0  0  0  0  0  0
    2.1158   -0.0245   -0.0869 C   0  0  0  0  0  0  0  0  0  0  0  0
    2.8228    1.1845   -0.0774 C   0  0  0  0  0  0  0  0  0  0  0  0
    4.2153    1.1853   -0.0576 C   0  0  0  0  0  0  0  0  0  0  0  0
    4.8753   -0.0405   -0.0477 C   0  0  0  0  0  0  0  0  0  0  0  0
    4.1732   -1.2714   -0.0509 C   0  0  0  0  0  0  0  0  0  0  0  0
    2.7870   -1.2544   -0.0754 C   0  0  0  0  0  0  0  0  0  0  0  0
    2.1992   -2.1646   -0.0863 H   0  0  0  0  0  0  0  0  0  0  0  0
    5.1331   -2.3733   -0.0266 C   0  0  0  0  0  0  0  0  0  0  0  0
    6.4292   -1.8133   -0.0105 C   0  0  0  0  0  0  0  0  0  0  0  0
    7.5725   -2.6018    0.0157 C   0  0  0  0  0  0  0  0  0  0  0  0
    7.4558   -3.9958    0.0288 C   0  0  0  0  0  0  0  0  0  0  0  0
    6.1684   -4.5692   -0.0006 C   0  0  0  0  0  0  0  0  0  0  0  0
    5.0098   -3.7621   -0.0267 C   0  0  0  0  0  0  0  0  0  0  0  0
    3.4823   -4.5589   -0.0834 Cl  0  0  0  0  0  0  0  0  0  0  0  0
    6.0617   -5.6538   -0.0311 H   0  0  0  0  0  0  0  0  0  0  0  0
    8.6921   -4.8538   -0.0590 C   0  0  0  0  0  0  0  0  0  0  0  0
    8.5923   -6.0695   -0.1774 O   0  0  0  0  0  0  0  0  0  0  0  0
    9.8702   -4.1324   -0.1750 N   0  0  0  0  0  0  0  0  0  0  0  0
   11.0893   -4.5176   -0.8825 C   0  0  0  0  0  0  0  0  0  0  0  0
   11.8940   -4.1917    0.3801 C   0  0  0  0  0  0  0  0  0  0  0  0
   10.6229   -3.5405    0.9412 C   0  0  0  0  0  0  0  0  0  0  0  0
   10.6253   -2.4473    0.8860 H   0  0  0  0  0  0  0  0  0  0  0  0
   10.3295   -3.8634    1.9428 H   0  0  0  0  0  0  0  0  0  0  0  0
   12.6944   -3.4698    0.1687 H   0  0  0  0  0  0  0  0  0  0  0  0
   12.4418   -5.3106    1.1134 O   0  0  0  0  0  0  0  0  0  0  0  0
   13.1896   -4.9913    2.2769 C   0  0  0  0  0  0  0  0  0  0  0  0
   14.0736   -4.4124    1.9861 H   0  0  0  0  0  0  0  0  0  0  0  0
   12.5737   -4.3884    2.9535 H   0  0  0  0  0  0  0  0  0  0  0  0
   13.6571   -6.2351    3.0346 C   0  0  0  0  0  0  0  0  0  0  0  0
   13.4338   -7.3924    2.6983 O   0  0  0  0  0  0  0  0  0  0  0  0
   14.3786   -5.9864    4.1699 N   0  0  0  0  0  0  0  0  0  0  0  0
   14.6072   -5.0643    4.5101 H   0  0  0  0  0  0  0  0  0  0  0  0
   14.6976   -6.7950    4.6890 H   0  0  0  0  0  0  0  0  0  0  0  0
   11.1499   -5.5375   -1.2633 H   0  0  0  0  0  0  0  0  0  0  0  0
   11.2596   -3.8102   -1.7044 H   0  0  0  0  0  0  0  0  0  0  0  0
    8.5405   -2.1160   -0.0073 H   0  0  0  0  0  0  0  0  0  0  0  0
    6.3769   -0.2908   -0.0483 C   0  0  0  0  0  0  0  0  0  0  0  0
    7.0866    0.3026   -1.2930 C   0  0  0  0  0  0  0  0  0  0  0  0
    6.9921    1.6583   -1.2927 F   0  0  0  0  0  0  0  0  0  0  0  0
    8.4129    0.0145   -1.2977 F   0  0  0  0  0  0  0  0  0  0  0  0
    6.5720   -0.1430   -2.4598 F   0  0  0  0  0  0  0  0  0  0  0  0
    6.9238    0.1905    1.1910 O   0  0  0  0  0  0  0  0  0  0  0  0
    6.8829    1.1626    1.1548 H   0  0  0  0  0  0  0  0  0  0  0  0
    4.7556    2.1274   -0.0570 H   0  0  0  0  0  0  0  0  0  0  0  0
    2.2776    2.1260   -0.0887 H   0  0  0  0  0  0  0  0  0  0  0  0
  1  2  1  0  0  0  0
  2  3  1  0  0  0  0
  2  7  2  0  0  0  0
  3  4  2  0  0  0  0
  3 46  1  0  0  0  0
  4  5  1  0  0  0  0
  4 45  1  0  0  0  0
  5  6  2  0  0  0  0
  5 38  1  0  0  0  0
  6  7  1  0  0  0  0
  6  9  1  0  0  0  0
  7  8  1  0  0  0  0
  9 10  1  0  0  0  0
  9 14  2  0  0  0  0
 10 11  2  0  0  0  0
 10 38  1  0  0  0  0
 11 12  1  0  0  0  0
 11 37  1  0  0  0  0
 12 13  2  0  0  0  0
 12 17  1  0  0  0  0
 13 14  1  0  0  0  0
 13 16  1  0  0  0  0
 14 15  1  0  0  0  0
 17 18  2  0  0  0  0
 17 19  1  0  0  0  0
 19 20  1  0  0  0  0
 19 22  1  0  0  0  0
 20 21  1  0  0  0  0
 20 35  1  0  0  0  0
 20 36  1  0  0  0  0
 21 22  1  0  0  0  0
 21 25  1  0  0  0  0
 21 26  1  0  0  0  0
 22 23  1  0  0  0  0
 22 24  1  0  0  0  0
 26 27  1  0  0  0  0
 27 28  1  0  0  0  0
 27 29  1  0  0  0  0
 27 30  1  0  0  0  0
 30 31  2  0  0  0  0
 30 32  1  0  0  0  0
 32 33  1  0  0  0  0
 32 34  1  0  0  0  0
 38 39  1  0  0  0  0
 38 43  1  0  0  0  0
 39 40  1  0  0  0  0
 39 41  1  0  0  0  0
 39 42  1  0  0  0  0
 43 44  1  0  0  0  0
M  END
$$$$
