
 OpenBabel05282315433D

 48 51  0  0  0  0  0  0  0  0999 V2000
    0.9632    0.0239   -0.0904 H   0  0  0  0  0  0  0  0  0  0  0  0
    2.0456    0.0154   -0.0740 C   0  0  0  0  0  0  0  0  0  0  0  0
    2.7362    1.2221   -0.0311 C   0  0  0  0  0  0  0  0  0  0  0  0
    4.1284    1.3023    0.0185 C   0  0  0  0  0  0  0  0  0  0  0  0
    4.8893    0.1090   -0.0286 C   0  0  0  0  0  0  0  0  0  0  0  0
    4.1611   -1.0965   -0.0632 C   0  0  0  0  0  0  0  0  0  0  0  0
    2.7810   -1.1668   -0.0731 C   0  0  0  0  0  0  0  0  0  0  0  0
    2.4791   -2.5457   -0.0731 C   0  0  0  0  0  0  0  0  0  0  0  0
    3.5915   -3.2833   -0.0779 N   0  0  0  0  0  0  0  0  0  0  0  0
    4.6508   -2.3728   -0.0799 O   0  0  0  0  0  0  0  0  0  0  0  0
    1.2140   -3.0027   -0.0637 N   0  0  0  0  0  0  0  0  0  0  0  0
    0.4091   -2.3874   -0.0505 H   0  0  0  0  0  0  0  0  0  0  0  0
    1.0124   -3.9940   -0.0495 H   0  0  0  0  0  0  0  0  0  0  0  0
    5.9745    0.0885   -0.0332 H   0  0  0  0  0  0  0  0  0  0  0  0
    4.7682    2.5733    0.1066 N   0  0  0  0  0  0  0  0  0  0  0  0
    5.7863    2.5487    0.0081 H   0  0  0  0  0  0  0  0  0  0  0  0
    4.1530    3.8244   -0.0363 C   0  0  0  0  0  0  0  0  0  0  0  0
    2.9314    3.9857   -0.0949 O   0  0  0  0  0  0  0  0  0  0  0  0
    5.0738    5.1019   -0.0681 C   0  0  0  0  0  0  0  0  0  0  0  0
    5.6753    5.1019    0.8490 H   0  0  0  0  0  0  0  0  0  0  0  0
    5.9755    5.2928   -1.2641 C   0  0  0  0  0  0  0  0  0  0  0  0
    6.2525    6.4664   -1.8683 C   0  0  0  0  0  0  0  0  0  0  0  0
    7.3305    6.5723   -2.8208 C   0  0  0  0  0  0  0  0  0  0  0  0
    7.7621    5.4748   -3.4484 C   0  0  0  0  0  0  0  0  0  0  0  0
    7.2715    4.2361   -3.0817 N   0  0  0  0  0  0  0  0  0  0  0  0
    6.6640    4.0948   -1.8292 C   0  0  0  0  0  0  0  0  0  0  0  0
    6.7197    3.0471   -1.1757 O   0  0  0  0  0  0  0  0  0  0  0  0
    7.6795    3.0258   -3.6945 C   0  0  0  0  0  0  0  0  0  0  0  0
    6.6962    2.1222   -4.1184 C   0  0  0  0  0  0  0  0  0  0  0  0
    7.0459    0.8121   -4.4432 C   0  0  0  0  0  0  0  0  0  0  0  0
    8.3869    0.4218   -4.4285 C   0  0  0  0  0  0  0  0  0  0  0  0
    9.3710    1.3692   -4.1268 C   0  0  0  0  0  0  0  0  0  0  0  0
    9.0192    2.6533   -3.7106 C   0  0  0  0  0  0  0  0  0  0  0  0
    9.7867    3.3146   -3.3195 H   0  0  0  0  0  0  0  0  0  0  0  0
   10.4298    1.1353   -4.1623 H   0  0  0  0  0  0  0  0  0  0  0  0
    8.6109   -0.8991   -4.7010 O   0  0  0  0  0  0  0  0  0  0  0  0
    9.9583   -1.3405   -4.6424 C   0  0  0  0  0  0  0  0  0  0  0  0
   10.7012   -0.7227   -5.5872 F   0  0  0  0  0  0  0  0  0  0  0  0
   10.5026   -1.1140   -3.4260 F   0  0  0  0  0  0  0  0  0  0  0  0
   10.0016   -2.6693   -4.8783 F   0  0  0  0  0  0  0  0  0  0  0  0
    6.2627    0.0958   -4.6838 H   0  0  0  0  0  0  0  0  0  0  0  0
    5.6535    2.4292   -4.1675 H   0  0  0  0  0  0  0  0  0  0  0  0
    8.5188    5.5070   -4.2245 H   0  0  0  0  0  0  0  0  0  0  0  0
    7.7754    7.5465   -2.9959 H   0  0  0  0  0  0  0  0  0  0  0  0
    5.7294    7.3883   -1.6365 H   0  0  0  0  0  0  0  0  0  0  0  0
    4.1955    6.2476    0.0382 O   0  0  0  0  0  0  0  0  0  0  0  0
    4.7181    7.0557    0.1318 H   0  0  0  0  0  0  0  0  0  0  0  0
    2.1125    2.1038   -0.0342 H   0  0  0  0  0  0  0  0  0  0  0  0
  1  2  1  0  0  0  0
  2  3  1  0  0  0  0
  2  7  2  0  0  0  0
  3  4  2  0  0  0  0
  3 48  1  0  0  0  0
  4  5  1  0  0  0  0
  4 15  1  0  0  0  0
  5  6  2  0  0  0  0
  5 14  1  0  0  0  0
  6  7  1  0  0  0  0
  6 10  1  0  0  0  0
  7  8  1  0  0  0  0
  8  9  2  0  0  0  0
  8 11  1  0  0  0  0
  9 10  1  0  0  0  0
 11 12  1  0  0  0  0
 11 13  1  0  0  0  0
 15 16  1  0  0  0  0
 15 17  1  0  0  0  0
 17 18  2  0  0  0  0
 17 19  1  0  0  0  0
 19 20  1  0  0  0  0
 19 21  1  0  0  0  0
 19 46  1  0  0  0  0
 21 22  2  0  0  0  0
 21 26  1  0  0  0  0
 22 23  1  0  0  0  0
 22 45  1  0  0  0  0
 23 24  2  0  0  0  0
 23 44  1  0  0  0  0
 24 25  1  0  0  0  0
 24 43  1  0  0  0  0
 25 26  1  0  0  0  0
 25 28  1  0  0  0  0
 26 27  2  0  0  0  0
 28 29  1  0  0  0  0
 28 33  2  0  0  0  0
 29 30  2  0  0  0  0
 29 42  1  0  0  0  0
 30 31  1  0  0  0  0
 30 41  1  0  0  0  0
 31 32  2  0  0  0  0
 31 36  1  0  0  0  0
 32 33  1  0  0  0  0
 32 35  1  0  0  0  0
 33 34  1  0  0  0  0
 36 37  1  0  0  0  0
 37 38  1  0  0  0  0
 37 39  1  0  0  0  0
 37 40  1  0  0  0  0
 46 47  1  0  0  0  0
M  END
$$$$
