
 OpenBabel05282315433D

 40 41  0  0  0  0  0  0  0  0999 V2000
    1.1487   -0.4480    0.1616 H   0  0  0  0  0  0  0  0  0  0  0  0
    2.1761   -0.2714    0.0484 C   0  0  0  0  0  0  0  0  0  0  0  0
    2.8843   -1.4005   -0.0090 C   0  0  0  0  0  0  0  0  0  0  0  0
    4.3172   -1.2458   -0.0028 C   0  0  0  0  0  0  0  0  0  0  0  0
    4.9489   -0.0576    0.0250 C   0  0  0  0  0  0  0  0  0  0  0  0
    4.1447    1.2398    0.0332 C   0  0  0  0  0  0  0  0  0  0  0  0
    4.6290    2.3645    0.0380 O   0  0  0  0  0  0  0  0  0  0  0  0
    2.6700    1.0709    0.0403 C   0  5  0  0  0  0  0  0  0  0  0  0
    1.8330    2.3336    0.0202 C   0  0  0  0  0  0  0  0  0  0  0  0
    2.1177    2.9489    0.8896 H   0  0  0  0  0  0  0  0  0  0  0  0
    2.1265    2.9392   -0.8526 H   0  0  0  0  0  0  0  0  0  0  0  0
    0.3089    2.2401    0.0173 C   0  0  0  0  0  0  0  0  0  0  0  0
   -0.5509    1.2104   -0.0163 C   0  0  0  0  0  0  0  0  0  0  0  0
   -1.6243    1.3198    0.0116 H   0  0  0  0  0  0  0  0  0  0  0  0
   -0.3311    0.1701   -0.0840 H   0  0  0  0  0  0  0  0  0  0  0  0
   -0.1698    3.2224    0.0416 H   0  0  0  0  0  0  0  0  0  0  0  0
    6.3330   -0.0995    0.0475 O   0  0  0  0  0  0  0  0  0  0  0  0
    6.9802    1.1623    0.0490 C   0  0  0  0  0  0  0  0  0  0  0  0
    6.7373    1.7201   -0.8614 H   0  0  0  0  0  0  0  0  0  0  0  0
    6.7297    1.7199    0.9573 H   0  0  0  0  0  0  0  0  0  0  0  0
    8.0546    0.9806    0.0531 H   0  0  0  0  0  0  0  0  0  0  0  0
    4.9138   -2.1497    0.0084 H   0  0  0  0  0  0  0  0  0  0  0  0
    2.0934   -2.6383   -0.0522 C   0  0  0  0  0  0  0  0  0  0  0  0
    2.5866   -3.8677    0.1243 C   0  0  0  0  0  0  0  0  0  0  0  0
    3.6554   -3.9816    0.2608 H   0  0  0  0  0  0  0  0  0  0  0  0
    1.8199   -5.1316    0.0541 C   0  0  0  0  0  0  0  0  0  0  0  0
    2.2326   -6.1289    0.8014 N   0  3  0  0  0  0  0  0  0  0  0  0
    1.5392   -7.3142    0.8492 C   0  0  0  0  0  0  0  0  0  0  0  0
    0.4610   -7.5274    0.0770 C   0  0  0  0  0  0  0  0  0  0  0  0
    0.0109   -6.4626   -0.8056 C   0  0  0  0  0  0  0  0  0  0  0  0
   -0.8986   -6.4540   -1.6177 O   0  0  0  0  0  0  0  0  0  0  0  0
    0.7550   -5.2521   -0.7029 N   0  0  0  0  0  0  0  0  0  0  0  0
    0.4926   -4.5007   -1.3309 H   0  0  0  0  0  0  0  0  0  0  0  0
   -0.2269   -8.7783    0.1288 N   0  3  0  0  0  0  0  0  0  0  0  0
    0.2020   -9.6245    0.9256 O   0  0  0  0  0  0  0  0  0  0  0  0
   -1.1936   -8.9420   -0.6140 O   0  5  0  0  0  0  0  0  0  0  0  0
    2.0982   -8.1618    1.7671 O   0  0  0  0  0  0  0  0  0  0  0  0
    1.6015   -9.0137    1.8013 H   0  0  0  0  0  0  0  0  0  0  0  0
    3.0235   -6.0081    1.4332 H   0  0  0  0  0  0  0  0  0  0  0  0
    1.0042   -2.5216   -0.0940 H   0  0  0  0  0  0  0  0  0  0  0  0
  1  2  1  0  0  0  0
  2  3  2  0  0  0  0
  2  8  1  0  0  0  0
  3  4  1  0  0  0  0
  3 23  1  0  0  0  0
  4  5  2  0  0  0  0
  4 22  1  0  0  0  0
  5  6  1  0  0  0  0
  5 17  1  0  0  0  0
  6  7  2  0  0  0  0
  6  8  1  0  0  0  0
  8  9  1  0  0  0  0
  9 10  1  0  0  0  0
  9 11  1  0  0  0  0
  9 12  1  0  0  0  0
 12 13  2  0  0  0  0
 12 16  1  0  0  0  0
 13 14  1  0  0  0  0
 13 15  1  0  0  0  0
 17 18  1  0  0  0  0
 18 19  1  0  0  0  0
 18 20  1  0  0  0  0
 18 21  1  0  0  0  0
 23 24  2  0  0  0  0
 23 40  1  0  0  0  0
 24 25  1  0  0  0  0
 24 26  1  0  0  0  0
 26 27  2  0  0  0  0
 26 32  1  0  0  0  0
 27 28  1  0  0  0  0
 27 39  1  0  0  0  0
 28 29  2  0  0  0  0
 28 37  1  0  0  0  0
 29 30  1  0  0  0  0
 29 34  1  0  0  0  0
 30 31  2  0  0  0  0
 30 32  1  0  0  0  0
 32 33  1  0  0  0  0
 34 35  2  0  0  0  0
 34 36  1  0  0  0  0
 37 38  1  0  0  0  0
M  CHG  4   8  -1  27   1  34   1  36  -1
M  END
$$$$
