
 OpenBabel05282315433D

 50 52  0  0  0  0  0  0  0  0999 V2000
    0.8002    0.0547   -0.0897 H   0  0  0  0  0  0  0  0  0  0  0  0
    1.8800    0.0544   -0.2067 C   0  0  0  0  0  0  0  0  0  0  0  0
    2.5510   -1.1506   -0.2615 C   0  0  0  0  0  0  0  0  0  0  0  0
    3.9392   -1.1518   -0.3371 C   0  0  0  0  0  0  0  0  0  0  0  0
    4.7043    0.0292   -0.4308 C   0  0  0  0  0  0  0  0  0  0  0  0
    4.0139    1.2448   -0.3379 C   0  0  0  0  0  0  0  0  0  0  0  0
    2.6106    1.2454   -0.2046 C   0  0  0  0  0  0  0  0  0  0  0  0
    2.0802    2.1802   -0.0387 H   0  0  0  0  0  0  0  0  0  0  0  0
    4.5322    2.1957   -0.2330 H   0  0  0  0  0  0  0  0  0  0  0  0
    6.1771   -0.0351   -0.2898 N   0  0  0  0  0  0  0  0  0  0  0  0
    7.0801    1.0300   -0.2296 C   0  0  0  0  0  0  0  0  0  0  0  0
    7.9840    1.5467   -1.1675 C   0  0  0  0  0  0  0  0  0  0  0  0
    8.7206    2.6701   -0.7982 C   0  0  0  0  0  0  0  0  0  0  0  0
    8.4004    3.3634    0.3773 C   0  0  0  0  0  0  0  0  0  0  0  0
    7.5109    2.7795    1.3546 C   0  0  0  0  0  0  0  0  0  0  0  0
    7.0149    1.4301    1.1180 C   0  0  0  0  0  0  0  0  0  0  0  0
    6.3968    0.1910    1.7254 C   0  0  0  0  0  0  0  0  0  0  0  0
    6.7096   -0.8533    0.7328 C   0  0  0  0  0  0  0  0  0  0  0  0
    6.5140   -2.3795    0.6218 C   0  0  0  0  0  0  0  0  0  0  0  0
    5.7601   -2.6820    1.3430 H   0  0  0  0  0  0  0  0  0  0  0  0
    6.1633   -2.5337   -0.4012 H   0  0  0  0  0  0  0  0  0  0  0  0
    7.7460   -3.6854    0.6528 S   0  0  0  0  0  0  0  0  0  0  0  0
    6.7580   -5.1655    0.4931 C   0  0  0  0  0  0  0  0  0  0  0  0
    5.4701   -5.2230    0.4140 N   0  0  0  0  0  0  0  0  0  0  0  0
    5.0198   -4.3191    0.4519 H   0  0  0  0  0  0  0  0  0  0  0  0
    7.3971   -6.3547    0.4529 N   0  0  0  0  0  0  0  0  0  0  0  0
    8.3964   -6.4521    0.5116 H   0  0  0  0  0  0  0  0  0  0  0  0
    6.8202   -7.1902    0.4603 H   0  0  0  0  0  0  0  0  0  0  0  0
    5.5193   -0.2652    2.8493 C   0  0  0  0  0  0  0  0  0  0  0  0
    5.6685   -1.3922    3.2711 O   0  0  0  0  0  0  0  0  0  0  0  0
    4.3095    0.4147    3.0630 O   0  0  0  0  0  0  0  0  0  0  0  0
    3.1943   -0.5212    3.2157 C   0  0  0  0  0  0  0  0  0  0  0  0
    2.5982   -0.4409    2.3098 H   0  0  0  0  0  0  0  0  0  0  0  0
    3.5389   -1.5556    3.2572 H   0  0  0  0  0  0  0  0  0  0  0  0
    2.2152   -0.4195    4.3823 C   0  0  0  0  0  0  0  0  0  0  0  0
    2.7125   -0.4422    5.3534 H   0  0  0  0  0  0  0  0  0  0  0  0
    1.5540    0.4502    4.3289 H   0  0  0  0  0  0  0  0  0  0  0  0
    1.5599   -1.3066    4.3360 H   0  0  0  0  0  0  0  0  0  0  0  0
    7.3499    3.3089    2.2902 H   0  0  0  0  0  0  0  0  0  0  0  0
    9.0796    4.6486    0.4990 O   0  0  0  0  0  0  0  0  0  0  0  0
    8.8570    5.7130    1.3790 C   0  0  0  0  0  0  0  0  0  0  0  0
    8.0369    5.6977    2.2859 O   0  0  0  0  0  0  0  0  0  0  0  0
    9.7331    6.9139    1.0643 C   0  0  0  0  0  0  0  0  0  0  0  0
   10.7985    6.6703    1.1045 H   0  0  0  0  0  0  0  0  0  0  0  0
    9.4817    7.3602    0.0970 H   0  0  0  0  0  0  0  0  0  0  0  0
    9.5525    7.6831    1.8276 H   0  0  0  0  0  0  0  0  0  0  0  0
   10.2007    3.1424   -1.8999 Br  0  0  0  0  0  0  0  0  0  0  0  0
    8.1619    1.0279   -2.1033 H   0  0  0  0  0  0  0  0  0  0  0  0
    4.3561   -2.1370   -0.2372 H   0  0  0  0  0  0  0  0  0  0  0  0
    2.0242   -2.0979   -0.1672 H   0  0  0  0  0  0  0  0  0  0  0  0
  1  2  1  0  0  0  0
  2  3  1  0  0  0  0
  2  7  2  0  0  0  0
  3  4  2  0  0  0  0
  3 50  1  0  0  0  0
  4  5  1  0  0  0  0
  4 49  1  0  0  0  0
  5  6  2  0  0  0  0
  5 10  1  0  0  0  0
  6  7  1  0  0  0  0
  6  9  1  0  0  0  0
  7  8  1  0  0  0  0
 10 11  1  0  0  0  0
 10 18  1  0  0  0  0
 11 12  1  0  0  0  0
 11 16  2  0  0  0  0
 12 13  2  0  0  0  0
 12 48  1  0  0  0  0
 13 14  1  0  0  0  0
 13 47  1  0  0  0  0
 14 15  2  0  0  0  0
 14 40  1  0  0  0  0
 15 16  1  0  0  0  0
 15 39  1  0  0  0  0
 16 17  1  0  0  0  0
 17 18  2  0  0  0  0
 17 29  1  0  0  0  0
 18 19  1  0  0  0  0
 19 20  1  0  0  0  0
 19 21  1  0  0  0  0
 19 22  1  0  0  0  0
 22 23  1  0  0  0  0
 23 24  2  0  0  0  0
 23 26  1  0  0  0  0
 24 25  1  0  0  0  0
 26 27  1  0  0  0  0
 26 28  1  0  0  0  0
 29 30  2  0  0  0  0
 29 31  1  0  0  0  0
 31 32  1  0  0  0  0
 32 33  1  0  0  0  0
 32 34  1  0  0  0  0
 32 35  1  0  0  0  0
 35 36  1  0  0  0  0
 35 37  1  0  0  0  0
 35 38  1  0  0  0  0
 40 41  1  0  0  0  0
 41 42  2  0  0  0  0
 41 43  1  0  0  0  0
 43 44  1  0  0  0  0
 43 45  1  0  0  0  0
 43 46  1  0  0  0  0
M  END
$$$$
