
 OpenBabel05282315433D

 38 40  0  0  0  0  0  0  0  0999 V2000
    0.9102   -0.0950    0.0443 H   0  0  0  0  0  0  0  0  0  0  0  0
    1.9933   -0.1117    0.0475 C   0  0  0  0  0  0  0  0  0  0  0  0
    2.6900   -1.2676    0.1419 C   0  0  0  0  0  0  0  0  0  0  0  0
    4.0633   -1.1776    0.2921 C   0  0  0  0  0  0  0  0  0  0  0  0
    4.8474   -0.0325    0.0890 C   0  0  0  0  0  0  0  0  0  0  0  0
    4.1386    1.1965    0.0451 C   0  0  0  0  0  0  0  0  0  0  0  0
    2.7074    1.0738    0.0643 C   0  0  0  0  0  0  0  0  0  0  0  0
    2.0241    1.9003    0.1045 H   0  0  0  0  0  0  0  0  0  0  0  0
    4.8989    2.4167    0.0150 C   0  0  0  0  0  0  0  0  0  0  0  0
    6.3049    2.3633   -0.0475 C   0  0  0  0  0  0  0  0  0  0  0  0
    6.9842    1.1373   -0.0839 C   0  0  0  0  0  0  0  0  0  0  0  0
    6.2640   -0.0710   -0.0212 C   0  0  0  0  0  0  0  0  0  0  0  0
    7.2587   -1.5826   -0.1722 S   0  0  0  0  0  0  0  0  0  0  0  0
    7.8727   -1.5575   -1.4961 O   0  0  0  0  0  0  0  0  0  0  0  0
    8.0597   -1.6682    1.0300 O   0  0  0  0  0  0  0  0  0  0  0  0
    6.2806   -3.0536   -0.1948 N   0  0  0  0  0  0  0  0  0  0  0  0
    5.3377   -3.3161   -1.1801 C   0  0  0  0  0  0  0  0  0  0  0  0
    4.5667   -4.3633   -0.7176 C   0  0  0  0  0  0  0  0  0  0  0  0
    5.1580   -4.7512    0.5059 C   0  0  0  0  0  0  0  0  0  0  0  0
    6.1717   -3.9441    0.8479 N   0  0  0  0  0  0  0  0  0  0  0  0
    4.7371   -5.8824    1.3743 C   0  0  0  0  0  0  0  0  0  0  0  0
    3.7020   -5.7612    1.7135 H   0  0  0  0  0  0  0  0  0  0  0  0
    4.7956   -6.8145    0.8022 H   0  0  0  0  0  0  0  0  0  0  0  0
    5.3766   -5.9855    2.2562 H   0  0  0  0  0  0  0  0  0  0  0  0
    3.6665   -4.7713   -1.1614 H   0  0  0  0  0  0  0  0  0  0  0  0
    5.1963   -2.6466   -2.0179 H   0  0  0  0  0  0  0  0  0  0  0  0
    8.0746    1.1403   -0.1501 H   0  0  0  0  0  0  0  0  0  0  0  0
    6.8765    3.2925   -0.0771 H   0  0  0  0  0  0  0  0  0  0  0  0
    4.4198    3.7210    0.0498 O   0  0  0  0  0  0  0  0  0  0  0  0
    3.0116    3.8810    0.1479 C   0  0  0  0  0  0  0  0  0  0  0  0
    2.5562    3.4679   -0.7597 H   0  0  0  0  0  0  0  0  0  0  0  0
    2.6656    3.4232    1.0837 H   0  0  0  0  0  0  0  0  0  0  0  0
    2.5200    5.3030    0.1992 C   0  0  0  0  0  0  0  0  0  0  0  0
    2.9187    5.8155    1.0747 H   0  0  0  0  0  0  0  0  0  0  0  0
    2.8142    5.8385   -0.7039 H   0  0  0  0  0  0  0  0  0  0  0  0
    1.4231    5.2944    0.2624 H   0  0  0  0  0  0  0  0  0  0  0  0
    4.4999   -2.0720    0.6814 H   0  0  0  0  0  0  0  0  0  0  0  0
    2.1913   -2.2273    0.1826 H   0  0  0  0  0  0  0  0  0  0  0  0
  1  2  1  0  0  0  0
  2  3  1  0  0  0  0
  2  7  2  0  0  0  0
  3  4  2  0  0  0  0
  3 38  1  0  0  0  0
  4  5  1  0  0  0  0
  4 37  1  0  0  0  0
  5  6  1  0  0  0  0
  5 12  2  0  0  0  0
  6  7  1  0  0  0  0
  6  9  2  0  0  0  0
  7  8  1  0  0  0  0
  9 10  1  0  0  0  0
  9 29  1  0  0  0  0
 10 11  2  0  0  0  0
 10 28  1  0  0  0  0
 11 12  1  0  0  0  0
 11 27  1  0  0  0  0
 12 13  1  0  0  0  0
 13 14  2  0  0  0  0
 13 15  2  0  0  0  0
 13 16  1  0  0  0  0
 16 17  1  0  0  0  0
 16 20  1  0  0  0  0
 17 18  2  0  0  0  0
 17 26  1  0  0  0  0
 18 19  1  0  0  0  0
 18 25  1  0  0  0  0
 19 20  2  0  0  0  0
 19 21  1  0  0  0  0
 21 22  1  0  0  0  0
 21 23  1  0  0  0  0
 21 24  1  0  0  0  0
 29 30  1  0  0  0  0
 30 31  1  0  0  0  0
 30 32  1  0  0  0  0
 30 33  1  0  0  0  0
 33 34  1  0  0  0  0
 33 35  1  0  0  0  0
 33 36  1  0  0  0  0
M  END
$$$$
