
 OpenBabel05282315433D

 38 40  0  0  0  0  0  0  0  0999 V2000
    1.0057   -0.0912    0.0427 H   0  0  0  0  0  0  0  0  0  0  0  0
    2.0937   -0.1194    0.0795 C   0  0  0  0  0  0  0  0  0  0  0  0
    2.7828    1.0957    0.0745 C   0  0  0  0  0  0  0  0  0  0  0  0
    4.1796    1.1154    0.0830 C   0  0  0  0  0  0  0  0  0  0  0  0
    4.8712   -0.1028    0.1052 C   0  0  0  0  0  0  0  0  0  0  0  0
    4.1808   -1.3244    0.1182 C   0  0  0  0  0  0  0  0  0  0  0  0
    2.7811   -1.3428    0.1004 C   0  0  0  0  0  0  0  0  0  0  0  0
    2.0280   -2.5766   -0.0614 C   0  0  0  0  0  0  0  0  0  0  0  0
    1.1439   -2.9490   -1.0730 C   0  0  0  0  0  0  0  0  0  0  0  0
    0.6901   -4.2352   -0.6853 C   0  0  0  0  0  0  0  0  0  0  0  0
    1.3062   -4.5492    0.5097 N   0  3  0  0  0  0  0  0  0  0  0  0
    2.1407   -3.5602    0.9115 O   0  0  0  0  0  0  0  0  0  0  0  0
    1.1539   -5.7803    1.2560 C   0  0  0  0  0  0  0  0  0  0  0  0
    2.1277   -6.2633    1.3635 H   0  0  0  0  0  0  0  0  0  0  0  0
    0.7403   -5.5532    2.2420 H   0  0  0  0  0  0  0  0  0  0  0  0
    0.4814   -6.4797    0.7527 H   0  0  0  0  0  0  0  0  0  0  0  0
   -0.2148   -5.0776   -1.4366 C   0  0  0  0  0  0  0  0  0  0  0  0
    0.1523   -5.4601   -2.7308 C   0  0  0  0  0  0  0  0  0  0  0  0
   -0.7391   -6.1745   -3.5273 C   0  0  0  0  0  0  0  0  0  0  0  0
   -2.0016   -6.5184   -3.0363 C   0  0  0  0  0  0  0  0  0  0  0  0
   -2.3558   -6.1576   -1.7299 C   0  0  0  0  0  0  0  0  0  0  0  0
   -1.4676   -5.4347   -0.9286 C   0  0  0  0  0  0  0  0  0  0  0  0
   -1.7912   -5.1356    0.0658 H   0  0  0  0  0  0  0  0  0  0  0  0
   -3.3406   -6.4175   -1.3432 H   0  0  0  0  0  0  0  0  0  0  0  0
   -2.9811   -7.2440   -3.9129 C   0  0  0  0  0  0  0  0  0  0  0  0
   -3.2625   -8.1975   -3.4569 H   0  0  0  0  0  0  0  0  0  0  0  0
   -3.8755   -6.6311   -4.0629 H   0  0  0  0  0  0  0  0  0  0  0  0
   -2.5515   -7.4546   -4.8981 H   0  0  0  0  0  0  0  0  0  0  0  0
   -0.4495   -6.4423   -4.5417 H   0  0  0  0  0  0  0  0  0  0  0  0
    1.1211   -5.1910   -3.1489 H   0  0  0  0  0  0  0  0  0  0  0  0
    0.8866   -2.3743   -1.9501 H   0  0  0  0  0  0  0  0  0  0  0  0
    4.7566   -2.2460    0.0914 H   0  0  0  0  0  0  0  0  0  0  0  0
    5.9612   -0.1027    0.0900 H   0  0  0  0  0  0  0  0  0  0  0  0
    4.9254    2.4197    0.0533 C   0  0  0  0  0  0  0  0  0  0  0  0
    5.5695    2.5081    0.9339 H   0  0  0  0  0  0  0  0  0  0  0  0
    5.5376    2.4899   -0.8517 H   0  0  0  0  0  0  0  0  0  0  0  0
    4.2394    3.2743    0.0571 H   0  0  0  0  0  0  0  0  0  0  0  0
    2.2213    2.0281    0.0451 H   0  0  0  0  0  0  0  0  0  0  0  0
  1  2  1  0  0  0  0
  2  3  1  0  0  0  0
  2  7  2  0  0  0  0
  3  4  2  0  0  0  0
  3 38  1  0  0  0  0
  4  5  1  0  0  0  0
  4 34  1  0  0  0  0
  5  6  2  0  0  0  0
  5 33  1  0  0  0  0
  6  7  1  0  0  0  0
  6 32  1  0  0  0  0
  7  8  1  0  0  0  0
  8  9  2  0  0  0  0
  8 12  1  0  0  0  0
  9 10  1  0  0  0  0
  9 31  1  0  0  0  0
 10 11  2  0  0  0  0
 10 17  1  0  0  0  0
 11 12  1  0  0  0  0
 11 13  1  0  0  0  0
 13 14  1  0  0  0  0
 13 15  1  0  0  0  0
 13 16  1  0  0  0  0
 17 18  1  0  0  0  0
 17 22  2  0  0  0  0
 18 19  2  0  0  0  0
 18 30  1  0  0  0  0
 19 20  1  0  0  0  0
 19 29  1  0  0  0  0
 20 21  2  0  0  0  0
 20 25  1  0  0  0  0
 21 22  1  0  0  0  0
 21 24  1  0  0  0  0
 22 23  1  0  0  0  0
 25 26  1  0  0  0  0
 25 27  1  0  0  0  0
 25 28  1  0  0  0  0
 34 35  1  0  0  0  0
 34 36  1  0  0  0  0
 34 37  1  0  0  0  0
M  CHG  1  11   1
M  END
$$$$
