
 OpenBabel05282315433D

 37 39  0  0  0  0  0  0  0  0999 V2000
    0.8843   -0.0189   -0.0635 H   0  0  0  0  0  0  0  0  0  0  0  0
    1.9666    0.0061    0.0367 C   0  0  0  0  0  0  0  0  0  0  0  0
    2.6900   -1.1718    0.1184 C   0  0  0  0  0  0  0  0  0  0  0  0
    4.0763   -1.1287    0.3138 C   0  0  0  0  0  0  0  0  0  0  0  0
    4.8086    0.0800    0.2876 C   0  0  0  0  0  0  0  0  0  0  0  0
    4.0383    1.2531    0.2273 C   0  0  0  0  0  0  0  0  0  0  0  0
    2.6389    1.2176    0.1127 C   0  0  0  0  0  0  0  0  0  0  0  0
    2.0767    2.1482    0.0681 H   0  0  0  0  0  0  0  0  0  0  0  0
    4.4677    2.2468    0.2764 H   0  0  0  0  0  0  0  0  0  0  0  0
    6.2691    0.1000    0.3186 N   0  0  0  0  0  0  0  0  0  0  0  0
    6.9314   -1.1687    0.3536 C   0  0  0  0  0  0  0  0  0  0  0  0
    7.8728   -1.4483    1.3556 C   0  0  0  0  0  0  0  0  0  0  0  0
    8.6924   -2.5739    1.2546 C   0  0  0  0  0  0  0  0  0  0  0  0
    8.5084   -3.4810    0.2124 C   0  0  0  0  0  0  0  0  0  0  0  0
    7.5419   -3.2411   -0.7612 C   0  0  0  0  0  0  0  0  0  0  0  0
    6.7709   -2.0808   -0.7043 C   0  0  0  0  0  0  0  0  0  0  0  0
    6.0541   -1.8914   -1.5022 H   0  0  0  0  0  0  0  0  0  0  0  0
    7.4003   -3.9491   -1.5755 H   0  0  0  0  0  0  0  0  0  0  0  0
    9.1106   -4.3864    0.1661 H   0  0  0  0  0  0  0  0  0  0  0  0
    9.4783   -2.7467    1.9867 H   0  0  0  0  0  0  0  0  0  0  0  0
    7.9880   -0.7889    2.2128 H   0  0  0  0  0  0  0  0  0  0  0  0
    7.0359    1.2865    0.3336 C   0  0  0  0  0  0  0  0  0  0  0  0
    6.6257    2.4409    0.4227 O   0  0  0  0  0  0  0  0  0  0  0  0
    8.4234    1.2758    0.2498 N   0  0  0  0  0  0  0  0  0  0  0  0
    9.2132    0.5185   -0.5859 C   0  0  0  0  0  0  0  0  0  0  0  0
   10.5048    0.8472   -0.2886 C   0  0  0  0  0  0  0  0  0  0  0  0
   10.4592    1.8597    0.6584 N   0  3  0  0  0  0  0  0  0  0  0  0
    9.1698    2.1558    0.9261 C   0  0  0  0  0  0  0  0  0  0  0  0
    8.8205    2.9192    1.6164 H   0  0  0  0  0  0  0  0  0  0  0  0
   11.6253    2.5141    1.2474 C   0  0  0  0  0  0  0  0  0  0  0  0
   11.5983    3.5825    1.0209 H   0  0  0  0  0  0  0  0  0  0  0  0
   11.6231    2.3551    2.3288 H   0  0  0  0  0  0  0  0  0  0  0  0
   12.5410    2.0839    0.8286 H   0  0  0  0  0  0  0  0  0  0  0  0
   11.4596    0.4993   -0.6438 H   0  0  0  0  0  0  0  0  0  0  0  0
    8.7851   -0.1775   -1.2847 H   0  0  0  0  0  0  0  0  0  0  0  0
    4.5514   -2.0915    0.4835 H   0  0  0  0  0  0  0  0  0  0  0  0
    2.1818   -2.1304    0.0335 H   0  0  0  0  0  0  0  0  0  0  0  0
  1  2  1  0  0  0  0
  2  3  1  0  0  0  0
  2  7  2  0  0  0  0
  3  4  2  0  0  0  0
  3 37  1  0  0  0  0
  4  5  1  0  0  0  0
  4 36  1  0  0  0  0
  5  6  2  0  0  0  0
  5 10  1  0  0  0  0
  6  7  1  0  0  0  0
  6  9  1  0  0  0  0
  7  8  1  0  0  0  0
 10 11  1  0  0  0  0
 10 22  1  0  0  0  0
 11 12  1  0  0  0  0
 11 16  2  0  0  0  0
 12 13  2  0  0  0  0
 12 21  1  0  0  0  0
 13 14  1  0  0  0  0
 13 20  1  0  0  0  0
 14 15  2  0  0  0  0
 14 19  1  0  0  0  0
 15 16  1  0  0  0  0
 15 18  1  0  0  0  0
 16 17  1  0  0  0  0
 22 23  2  0  0  0  0
 22 24  1  0  0  0  0
 24 25  1  0  0  0  0
 24 28  1  0  0  0  0
 25 26  2  0  0  0  0
 25 35  1  0  0  0  0
 26 27  1  0  0  0  0
 26 34  1  0  0  0  0
 27 28  2  0  0  0  0
 27 30  1  0  0  0  0
 28 29  1  0  0  0  0
 30 31  1  0  0  0  0
 30 32  1  0  0  0  0
 30 33  1  0  0  0  0
M  CHG  1  27   1
M  END
$$$$
