
 OpenBabel05282315433D

 41 43  0  0  0  0  0  0  0  0999 V2000
    0.8515   -0.0057   -0.1376 H   0  0  0  0  0  0  0  0  0  0  0  0
    1.9316   -0.0033   -0.2705 C   0  0  0  0  0  0  0  0  0  0  0  0
    2.6212    1.2154   -0.1685 C   0  0  0  0  0  0  0  0  0  0  0  0
    4.0137    1.2221   -0.1454 C   0  0  0  0  0  0  0  0  0  0  0  0
    4.7381    0.0368   -0.2400 C   0  0  0  0  0  0  0  0  0  0  0  0
    4.0638   -1.1861   -0.3550 C   0  0  0  0  0  0  0  0  0  0  0  0
    2.6574   -1.2127   -0.3359 C   0  0  0  0  0  0  0  0  0  0  0  0
    1.9694   -2.4384   -0.0687 N   0  0  0  0  0  0  0  0  0  0  0  0
    2.1625   -3.4162    0.9654 C   0  0  0  0  0  0  0  0  0  0  0  0
    1.3051   -4.4412    0.6325 C   0  0  0  0  0  0  0  0  0  0  0  0
    0.6688   -4.0605   -0.5488 C   0  0  0  0  0  0  0  0  0  0  0  0
    0.9857   -2.8347   -0.9491 N   0  0  0  0  0  0  0  0  0  0  0  0
   -0.2789   -5.0244   -1.1462 C   0  0  0  0  0  0  0  0  0  0  0  0
   -0.6930   -6.1463    0.2970 S   0  0  0  0  0  0  0  0  0  0  0  0
   -0.5973   -7.5708   -0.1693 O   0  0  0  0  0  0  0  0  0  0  0  0
    0.8995   -5.7395    1.1901 C   0  0  0  0  0  0  0  0  0  0  0  0
    0.6807   -5.7184    2.2593 H   0  0  0  0  0  0  0  0  0  0  0  0
    1.6226   -6.5214    0.9482 H   0  0  0  0  0  0  0  0  0  0  0  0
    0.2018   -5.6473   -1.9075 H   0  0  0  0  0  0  0  0  0  0  0  0
   -1.2089   -4.5934   -1.5184 H   0  0  0  0  0  0  0  0  0  0  0  0
    2.9916   -3.3728    2.1076 N   0  0  0  0  0  0  0  0  0  0  0  0
    2.9587   -4.1555    2.7516 H   0  0  0  0  0  0  0  0  0  0  0  0
    3.5001   -2.1889    2.5657 C   0  0  0  0  0  0  0  0  0  0  0  0
    3.0760   -1.1226    2.1376 O   0  0  0  0  0  0  0  0  0  0  0  0
    4.4930   -2.1616    3.7045 C   0  0  0  0  0  0  0  0  0  0  0  0
    3.9226   -2.2829    4.6315 H   0  0  0  0  0  0  0  0  0  0  0  0
    5.2017   -2.9967    3.6250 H   0  0  0  0  0  0  0  0  0  0  0  0
    5.2650   -0.8005    3.7256 C   0  0  0  0  0  0  0  0  0  0  0  0
    5.8786   -0.7365    2.8155 H   0  0  0  0  0  0  0  0  0  0  0  0
    4.3744    0.4614    3.7913 C   0  0  0  0  0  0  0  0  0  0  0  0
    3.6934    0.4089    4.6454 H   0  0  0  0  0  0  0  0  0  0  0  0
    4.9824    1.3671    3.8672 H   0  0  0  0  0  0  0  0  0  0  0  0
    3.7682    0.6449    2.9038 H   0  0  0  0  0  0  0  0  0  0  0  0
    6.1922   -0.7433    4.9381 C   0  0  0  0  0  0  0  0  0  0  0  0
    5.6090   -0.7940    5.8639 H   0  0  0  0  0  0  0  0  0  0  0  0
    6.9114   -1.5656    4.9321 H   0  0  0  0  0  0  0  0  0  0  0  0
    6.7533    0.1987    4.9489 H   0  0  0  0  0  0  0  0  0  0  0  0
    4.6336   -2.1093   -0.3233 H   0  0  0  0  0  0  0  0  0  0  0  0
    5.8171    0.0662   -0.1254 H   0  0  0  0  0  0  0  0  0  0  0  0
    4.6677    2.3796    0.0323 F   0  0  0  0  0  0  0  0  0  0  0  0
    2.0881    2.1510   -0.0226 H   0  0  0  0  0  0  0  0  0  0  0  0
  1  2  1  0  0  0  0
  2  3  1  0  0  0  0
  2  7  2  0  0  0  0
  3  4  2  0  0  0  0
  3 41  1  0  0  0  0
  4  5  1  0  0  0  0
  4 40  1  0  0  0  0
  5  6  2  0  0  0  0
  5 39  1  0  0  0  0
  6  7  1  0  0  0  0
  6 38  1  0  0  0  0
  7  8  1  0  0  0  0
  8  9  1  0  0  0  0
  8 12  1  0  0  0  0
  9 10  2  0  0  0  0
  9 21  1  0  0  0  0
 10 11  1  0  0  0  0
 10 16  1  0  0  0  0
 11 12  2  0  0  0  0
 11 13  1  0  0  0  0
 13 14  1  0  0  0  0
 13 19  1  0  0  0  0
 13 20  1  0  0  0  0
 14 15  2  0  0  0  0
 14 16  1  0  0  0  0
 16 17  1  0  0  0  0
 16 18  1  0  0  0  0
 21 22  1  0  0  0  0
 21 23  1  0  0  0  0
 23 24  2  0  0  0  0
 23 25  1  0  0  0  0
 25 26  1  0  0  0  0
 25 27  1  0  0  0  0
 25 28  1  0  0  0  0
 28 29  1  0  0  0  0
 28 30  1  0  0  0  0
 28 34  1  0  0  0  0
 30 31  1  0  0  0  0
 30 32  1  0  0  0  0
 30 33  1  0  0  0  0
 34 35  1  0  0  0  0
 34 36  1  0  0  0  0
 34 37  1  0  0  0  0
M  END
$$$$
