
 OpenBabel05282315443D

 38 40  0  0  0  0  0  0  0  0999 V2000
    0.9027    0.0229   -0.0953 H   0  0  0  0  0  0  0  0  0  0  0  0
    1.9838    0.0539    0.0088 C   0  0  0  0  0  0  0  0  0  0  0  0
    2.7189   -1.1282    0.0764 C   0  0  0  0  0  0  0  0  0  0  0  0
    4.1059   -1.0845    0.2532 C   0  0  0  0  0  0  0  0  0  0  0  0
    4.7827    0.1456    0.2755 C   0  0  0  0  0  0  0  0  0  0  0  0
    4.0250    1.3244    0.2070 C   0  0  0  0  0  0  0  0  0  0  0  0
    2.6369    1.2798    0.0836 C   0  0  0  0  0  0  0  0  0  0  0  0
    2.0731    2.2068    0.0292 H   0  0  0  0  0  0  0  0  0  0  0  0
    4.5132    2.2963    0.2451 H   0  0  0  0  0  0  0  0  0  0  0  0
    6.2998    0.1828    0.3007 C   0  0  0  0  0  0  0  0  0  0  0  0
    6.6627   -0.3502    1.1879 H   0  0  0  0  0  0  0  0  0  0  0  0
    6.6520   -0.3257   -0.6067 H   0  0  0  0  0  0  0  0  0  0  0  0
    6.7591    1.5347    0.3481 O   0  0  0  0  0  0  0  0  0  0  0  0
    8.0887    1.6646    0.2163 C   0  0  0  0  0  0  0  0  0  0  0  0
    8.6543    2.6385    0.9300 N   0  0  0  0  0  0  0  0  0  0  0  0
    9.9514    2.5487    0.5954 N   0  0  0  0  0  0  0  0  0  0  0  0
   10.2112    1.5810   -0.3224 C   0  0  0  0  0  0  0  0  0  0  0  0
    8.9985    0.9917   -0.6082 C   0  0  0  0  0  0  0  0  0  0  0  0
    8.8289    0.2002   -1.3237 H   0  0  0  0  0  0  0  0  0  0  0  0
   11.5062    1.2972   -0.8395 C   0  0  0  0  0  0  0  0  0  0  0  0
   11.6939    0.4079   -1.6756 O   0  0  0  0  0  0  0  0  0  0  0  0
   12.6617    2.1603   -0.3302 C   0  0  0  0  0  0  0  0  0  0  0  0
   12.3636    3.1972    0.7774 C   0  0  0  0  0  0  0  0  0  0  0  0
   10.9241    3.4070    1.2178 C   0  0  0  0  0  0  0  0  0  0  0  0
   10.8649    3.2287    2.2972 H   0  0  0  0  0  0  0  0  0  0  0  0
   10.6327    4.4444    1.0226 H   0  0  0  0  0  0  0  0  0  0  0  0
   12.9468    2.9592    1.6780 H   0  0  0  0  0  0  0  0  0  0  0  0
   12.7725    4.1763    0.4869 H   0  0  0  0  0  0  0  0  0  0  0  0
   13.1501    2.9406   -1.5596 C   0  0  0  0  0  0  0  0  0  0  0  0
   14.0133    3.5700   -1.3249 H   0  0  0  0  0  0  0  0  0  0  0  0
   13.4118    2.2879   -2.3975 H   0  0  0  0  0  0  0  0  0  0  0  0
   12.3437    3.6020   -1.9102 H   0  0  0  0  0  0  0  0  0  0  0  0
   13.6909    1.1788    0.2530 C   0  0  0  0  0  0  0  0  0  0  0  0
   13.2210    0.6044    1.0662 H   0  0  0  0  0  0  0  0  0  0  0  0
   14.0527    0.4548   -0.4817 H   0  0  0  0  0  0  0  0  0  0  0  0
   14.5521    1.7014    0.6811 H   0  0  0  0  0  0  0  0  0  0  0  0
    4.6515   -2.0193    0.3624 H   0  0  0  0  0  0  0  0  0  0  0  0
    2.2100   -2.0842   -0.0189 H   0  0  0  0  0  0  0  0  0  0  0  0
  1  2  1  0  0  0  0
  2  3  1  0  0  0  0
  2  7  2  0  0  0  0
  3  4  2  0  0  0  0
  3 38  1  0  0  0  0
  4  5  1  0  0  0  0
  4 37  1  0  0  0  0
  5  6  2  0  0  0  0
  5 10  1  0  0  0  0
  6  7  1  0  0  0  0
  6  9  1  0  0  0  0
  7  8  1  0  0  0  0
 10 11  1  0  0  0  0
 10 12  1  0  0  0  0
 10 13  1  0  0  0  0
 13 14  1  0  0  0  0
 14 15  2  0  0  0  0
 14 18  1  0  0  0  0
 15 16  1  0  0  0  0
 16 17  1  0  0  0  0
 16 24  1  0  0  0  0
 17 18  2  0  0  0  0
 17 20  1  0  0  0  0
 18 19  1  0  0  0  0
 20 21  2  0  0  0  0
 20 22  1  0  0  0  0
 22 23  1  0  0  0  0
 22 29  1  0  0  0  0
 22 33  1  0  0  0  0
 23 24  1  0  0  0  0
 23 27  1  0  0  0  0
 23 28  1  0  0  0  0
 24 25  1  0  0  0  0
 24 26  1  0  0  0  0
 29 30  1  0  0  0  0
 29 31  1  0  0  0  0
 29 32  1  0  0  0  0
 33 34  1  0  0  0  0
 33 35  1  0  0  0  0
 33 36  1  0  0  0  0
M  END
$$$$
