
 OpenBabel05282315443D

 49 52  0  0  0  0  0  0  0  0999 V2000
    0.9374   -0.1027   -0.0708 H   0  0  0  0  0  0  0  0  0  0  0  0
    2.0168   -0.0165    0.0193 C   0  0  0  0  0  0  0  0  0  0  0  0
    2.7632   -1.1992    0.1097 C   0  0  0  0  0  0  0  0  0  0  0  0
    4.1457   -1.1363    0.3119 C   0  0  0  0  0  0  0  0  0  0  0  0
    4.7784    0.1058    0.3070 C   0  0  0  0  0  0  0  0  0  0  0  0
    4.0173    1.2806    0.2065 C   0  0  0  0  0  0  0  0  0  0  0  0
    2.6253    1.2436    0.0702 C   0  0  0  0  0  0  0  0  0  0  0  0
    1.9118    2.4200   -0.0114 N   0  0  0  0  0  0  0  0  0  0  0  0
    2.3823    3.3236    0.0077 H   0  0  0  0  0  0  0  0  0  0  0  0
    0.4719    2.4661   -0.2012 C   0  0  0  0  0  0  0  0  0  0  0  0
    0.2046    1.9249   -1.1167 H   0  0  0  0  0  0  0  0  0  0  0  0
   -0.0294    1.9987    0.6541 H   0  0  0  0  0  0  0  0  0  0  0  0
   -0.0394    3.8840   -0.3302 C   0  0  0  0  0  0  0  0  0  0  0  0
   -1.3749    4.0994   -0.6757 C   0  0  0  0  0  0  0  0  0  0  0  0
   -1.9170    5.3339   -0.8171 N   0  0  0  0  0  0  0  0  0  0  0  0
   -1.0774    6.3710   -0.5949 C   0  0  0  0  0  0  0  0  0  0  0  0
    0.2490    6.1534   -0.2407 C   0  0  0  0  0  0  0  0  0  0  0  0
    0.8084    4.9221   -0.0980 N   0  0  0  0  0  0  0  0  0  0  0  0
    1.0758    7.3529   -0.0172 C   0  0  0  0  0  0  0  0  0  0  0  0
    2.2578    7.3059    0.3052 O   0  0  0  0  0  0  0  0  0  0  0  0
    0.4293    8.5554   -0.1966 N   0  0  0  0  0  0  0  0  0  0  0  0
   -0.8835    8.6682   -0.5515 C   0  0  0  0  0  0  0  0  0  0  0  0
   -1.6434    7.6420   -0.7513 N   0  0  0  0  0  0  0  0  0  0  0  0
   -1.3747    9.9152   -0.6906 N   0  0  0  0  0  0  0  0  0  0  0  0
   -0.8450   10.7585   -0.5358 H   0  0  0  0  0  0  0  0  0  0  0  0
   -2.3521   10.0040   -0.9443 H   0  0  0  0  0  0  0  0  0  0  0  0
    0.9919    9.3779   -0.0488 H   0  0  0  0  0  0  0  0  0  0  0  0
   -2.0577    3.2737   -0.8557 H   0  0  0  0  0  0  0  0  0  0  0  0
    4.5314    2.2391    0.2519 H   0  0  0  0  0  0  0  0  0  0  0  0
    5.8516    0.2096    0.3790 H   0  0  0  0  0  0  0  0  0  0  0  0
    5.0105   -2.6552    0.7293 S   0  0  0  0  0  0  0  0  0  0  0  0
    4.4523   -3.0602    2.0002 O   0  0  0  0  0  0  0  0  0  0  0  0
    4.9432   -3.5007   -0.4456 O   0  0  0  0  0  0  0  0  0  0  0  0
    6.6148   -2.2005    0.9907 N   0  0  0  0  0  0  0  0  0  0  0  0
    6.8185   -1.2530    1.2728 H   0  0  0  0  0  0  0  0  0  0  0  0
    7.4856   -3.2091    1.4884 C   0  0  0  0  0  0  0  0  0  0  0  0
    8.4484   -3.0372    2.4678 C   0  0  0  0  0  0  0  0  0  0  0  0
    9.1134   -4.2968    2.5196 C   0  0  0  0  0  0  0  0  0  0  0  0
    8.6050   -5.1529    1.6276 N   0  0  0  0  0  0  0  0  0  0  0  0
    7.5580   -4.4834    1.0163 O   0  0  0  0  0  0  0  0  0  0  0  0
   10.2164   -4.7205    3.4213 C   0  0  0  0  0  0  0  0  0  0  0  0
   11.0831   -4.0596    3.3131 H   0  0  0  0  0  0  0  0  0  0  0  0
    9.8879   -4.6813    4.4657 H   0  0  0  0  0  0  0  0  0  0  0  0
   10.5460   -5.7438    3.2134 H   0  0  0  0  0  0  0  0  0  0  0  0
    8.7114   -1.8602    3.3284 C   0  0  0  0  0  0  0  0  0  0  0  0
    9.0179   -0.9992    2.7285 H   0  0  0  0  0  0  0  0  0  0  0  0
    7.8134   -1.5937    3.8955 H   0  0  0  0  0  0  0  0  0  0  0  0
    9.5066   -2.0613    4.0551 H   0  0  0  0  0  0  0  0  0  0  0  0
    2.2466   -2.1543    0.0359 H   0  0  0  0  0  0  0  0  0  0  0  0
  1  2  1  0  0  0  0
  2  3  1  0  0  0  0
  2  7  2  0  0  0  0
  3  4  2  0  0  0  0
  3 49  1  0  0  0  0
  4  5  1  0  0  0  0
  4 31  1  0  0  0  0
  5  6  2  0  0  0  0
  5 30  1  0  0  0  0
  6  7  1  0  0  0  0
  6 29  1  0  0  0  0
  7  8  1  0  0  0  0
  8  9  1  0  0  0  0
  8 10  1  0  0  0  0
 10 11  1  0  0  0  0
 10 12  1  0  0  0  0
 10 13  1  0  0  0  0
 13 14  1  0  0  0  0
 13 18  2  0  0  0  0
 14 15  2  0  0  0  0
 14 28  1  0  0  0  0
 15 16  1  0  0  0  0
 16 17  2  0  0  0  0
 16 23  1  0  0  0  0
 17 18  1  0  0  0  0
 17 19  1  0  0  0  0
 19 20  2  0  0  0  0
 19 21  1  0  0  0  0
 21 22  1  0  0  0  0
 21 27  1  0  0  0  0
 22 23  2  0  0  0  0
 22 24  1  0  0  0  0
 24 25  1  0  0  0  0
 24 26  1  0  0  0  0
 31 32  2  0  0  0  0
 31 33  2  0  0  0  0
 31 34  1  0  0  0  0
 34 35  1  0  0  0  0
 34 36  1  0  0  0  0
 36 37  2  0  0  0  0
 36 40  1  0  0  0  0
 37 38  1  0  0  0  0
 37 45  1  0  0  0  0
 38 39  2  0  0  0  0
 38 41  1  0  0  0  0
 39 40  1  0  0  0  0
 41 42  1  0  0  0  0
 41 43  1  0  0  0  0
 41 44  1  0  0  0  0
 45 46  1  0  0  0  0
 45 47  1  0  0  0  0
 45 48  1  0  0  0  0
M  END
$$$$
