
 OpenBabel05282315443D

 50 52  0  0  0  0  0  0  0  0999 V2000
    1.0179    0.0306    0.0802 H   0  0  0  0  0  0  0  0  0  0  0  0
    2.1048    0.0411    0.0789 C   0  0  0  0  0  0  0  0  0  0  0  0
    2.7709   -1.1956    0.0668 C   0  0  0  0  0  0  0  0  0  0  0  0
    4.1580   -1.2470    0.0621 C   0  0  0  0  0  0  0  0  0  0  0  0
    4.8569   -0.0268    0.0746 C   0  0  0  0  0  0  0  0  0  0  0  0
    4.2050    1.2311    0.1326 C   0  0  0  0  0  0  0  0  0  0  0  0
    2.7966    1.2691    0.1323 C   0  0  0  0  0  0  0  0  0  0  0  0
    2.1206    2.5430    0.1928 C   0  0  0  0  0  0  0  0  0  0  0  0
    2.8154    3.7531    0.3181 C   0  0  0  0  0  0  0  0  0  0  0  0
    4.2073    3.5811    0.3358 C   0  0  0  0  0  0  0  0  0  0  0  0
    4.8932    2.3902    0.2010 N   0  0  0  0  0  0  0  0  0  0  0  0
    4.8776    4.4410    0.3197 H   0  0  0  0  0  0  0  0  0  0  0  0
    2.2100    5.1305    0.1198 C   0  0  0  0  0  0  0  0  0  0  0  0
    1.3029    5.7767    0.9266 N   0  0  0  0  0  0  0  0  0  0  0  0
    1.1653    7.0769    0.3882 N   0  0  0  0  0  0  0  0  0  0  0  0
    1.9807    7.1968   -0.7248 C   0  0  0  0  0  0  0  0  0  0  0  0
    2.5519    5.9674   -0.9897 C   0  0  0  0  0  0  0  0  0  0  0  0
    3.3645    5.7898   -2.1888 C   0  0  0  0  0  0  0  0  0  0  0  0
    3.4877    6.6776   -3.0485 O   0  0  0  0  0  0  0  0  0  0  0  0
    4.0145    4.6293   -2.4215 N   0  0  0  0  0  0  0  0  0  0  0  0
    3.9187    3.7744   -1.9007 H   0  0  0  0  0  0  0  0  0  0  0  0
    4.6091    4.6126   -3.2364 H   0  0  0  0  0  0  0  0  0  0  0  0
    2.2099    8.2936   -1.4861 N   0  0  0  0  0  0  0  0  0  0  0  0
    1.7237    9.1702   -1.5270 H   0  0  0  0  0  0  0  0  0  0  0  0
    2.5887    8.0992   -2.4230 H   0  0  0  0  0  0  0  0  0  0  0  0
    0.2146    8.1226    0.9218 C   0  0  0  0  0  0  0  0  0  0  0  0
   -0.7713    7.6457    1.0167 H   0  0  0  0  0  0  0  0  0  0  0  0
    0.6162    8.6636    2.3093 C   0  0  0  0  0  0  0  0  0  0  0  0
    1.6323    9.0708    2.2934 H   0  0  0  0  0  0  0  0  0  0  0  0
   -0.0453    9.4824    2.6334 H   0  0  0  0  0  0  0  0  0  0  0  0
    0.5549    7.8939    3.0816 H   0  0  0  0  0  0  0  0  0  0  0  0
    0.0354    9.3824   -0.0173 C   0  0  0  0  0  0  0  0  0  0  0  0
    1.0143    9.8694   -0.0823 H   0  0  0  0  0  0  0  0  0  0  0  0
   -0.5895    9.0314   -1.3742 C   0  0  0  0  0  0  0  0  0  0  0  0
   -1.6615    8.8528   -1.2728 H   0  0  0  0  0  0  0  0  0  0  0  0
   -0.4561    9.8637   -2.0768 H   0  0  0  0  0  0  0  0  0  0  0  0
   -0.1741    8.1397   -1.8464 H   0  0  0  0  0  0  0  0  0  0  0  0
   -0.7755   10.4492    0.5041 O   0  0  0  0  0  0  0  0  0  0  0  0
   -0.6556   11.2067   -0.1062 H   0  0  0  0  0  0  0  0  0  0  0  0
    1.0373    2.5580    0.1023 H   0  0  0  0  0  0  0  0  0  0  0  0
    5.9473   -0.0545    0.0655 H   0  0  0  0  0  0  0  0  0  0  0  0
    4.9026   -2.4062    0.0588 O   0  0  0  0  0  0  0  0  0  0  0  0
    4.1711   -3.6447    0.0723 C   0  0  0  0  0  0  0  0  0  0  0  0
    3.5535   -3.7092    0.9765 H   0  0  0  0  0  0  0  0  0  0  0  0
    3.5361   -3.7145   -0.8190 H   0  0  0  0  0  0  0  0  0  0  0  0
    5.1246   -4.8314    0.0660 C   0  0  0  0  0  0  0  0  0  0  0  0
    5.7645   -4.8146   -0.8215 H   0  0  0  0  0  0  0  0  0  0  0  0
    5.7796   -4.8129    0.9424 H   0  0  0  0  0  0  0  0  0  0  0  0
    4.5664   -5.7751    0.0718 H   0  0  0  0  0  0  0  0  0  0  0  0
    2.1684   -2.0984    0.0745 H   0  0  0  0  0  0  0  0  0  0  0  0
  1  2  1  0  0  0  0
  2  3  1  0  0  0  0
  2  7  2  0  0  0  0
  3  4  2  0  0  0  0
  3 50  1  0  0  0  0
  4  5  1  0  0  0  0
  4 42  1  0  0  0  0
  5  6  2  0  0  0  0
  5 41  1  0  0  0  0
  6  7  1  0  0  0  0
  6 11  1  0  0  0  0
  7  8  1  0  0  0  0
  8  9  2  0  0  0  0
  8 40  1  0  0  0  0
  9 10  1  0  0  0  0
  9 13  1  0  0  0  0
 10 11  2  0  0  0  0
 10 12  1  0  0  0  0
 13 14  2  0  0  0  0
 13 17  1  0  0  0  0
 14 15  1  0  0  0  0
 15 16  1  0  0  0  0
 15 26  1  0  0  0  0
 16 17  2  0  0  0  0
 16 23  1  0  0  0  0
 17 18  1  0  0  0  0
 18 19  2  0  0  0  0
 18 20  1  0  0  0  0
 20 21  1  0  0  0  0
 20 22  1  0  0  0  0
 23 24  1  0  0  0  0
 23 25  1  0  0  0  0
 26 27  1  0  0  0  0
 26 28  1  0  0  0  0
 26 32  1  0  0  0  0
 28 29  1  0  0  0  0
 28 30  1  0  0  0  0
 28 31  1  0  0  0  0
 32 33  1  0  0  0  0
 32 34  1  0  0  0  0
 32 38  1  0  0  0  0
 34 35  1  0  0  0  0
 34 36  1  0  0  0  0
 34 37  1  0  0  0  0
 38 39  1  0  0  0  0
 42 43  1  0  0  0  0
 43 44  1  0  0  0  0
 43 45  1  0  0  0  0
 43 46  1  0  0  0  0
 46 47  1  0  0  0  0
 46 48  1  0  0  0  0
 46 49  1  0  0  0  0
M  END
$$$$
