
 OpenBabel05282315443D

 30 30  0  0  0  0  0  0  0  0999 V2000
    1.0513    0.0713   -0.0745 H   0  0  0  0  0  0  0  0  0  0  0  0
    2.1319   -0.0172   -0.0514 C   0  0  0  0  0  0  0  0  0  0  0  0
    2.8417    1.1820   -0.0613 C   0  0  0  0  0  0  0  0  0  0  0  0
    4.2226    1.1508   -0.0294 C   0  0  0  0  0  0  0  0  0  0  0  0
    4.9044   -0.0552   -0.0116 C   0  0  0  0  0  0  0  0  0  0  0  0
    4.1845   -1.2508    0.0009 C   0  0  0  0  0  0  0  0  0  0  0  0
    2.7774   -1.2717    0.0106 C   0  0  0  0  0  0  0  0  0  0  0  0
    1.9707   -2.5262    0.1507 C   0  0  0  0  0  0  0  0  0  0  0  0
    0.6489   -2.4507    0.3906 C   0  0  0  0  0  0  0  0  0  0  0  0
    0.0312   -3.3312    0.5346 H   0  0  0  0  0  0  0  0  0  0  0  0
    0.0545   -1.5494    0.3565 H   0  0  0  0  0  0  0  0  0  0  0  0
    2.6752   -3.8799    0.0233 C   0  0  0  0  0  0  0  0  0  0  0  0
    3.3361   -3.8718   -0.8542 H   0  0  0  0  0  0  0  0  0  0  0  0
    3.3207   -4.0060    0.9055 H   0  0  0  0  0  0  0  0  0  0  0  0
    1.7676   -5.1306   -0.1072 C   0  0  0  0  0  0  0  0  0  0  0  0
    1.0693   -5.1380    0.7401 H   0  0  0  0  0  0  0  0  0  0  0  0
    0.9568   -5.1844   -1.4281 C   0  0  0  0  0  0  0  0  0  0  0  0
    1.6301   -5.3558   -2.2716 H   0  0  0  0  0  0  0  0  0  0  0  0
    0.2333   -6.0027   -1.3768 H   0  0  0  0  0  0  0  0  0  0  0  0
    0.2207   -4.0090   -1.7271 O   0  0  0  0  0  0  0  0  0  0  0  0
   -0.4062   -4.2047   -2.4406 H   0  0  0  0  0  0  0  0  0  0  0  0
    2.5950   -6.4193    0.0022 C   0  0  0  0  0  0  0  0  0  0  0  0
    3.2702   -6.5277   -0.8530 H   0  0  0  0  0  0  0  0  0  0  0  0
    3.1872   -6.4397    0.9229 H   0  0  0  0  0  0  0  0  0  0  0  0
    1.7102   -7.5367    0.0208 O   0  0  0  0  0  0  0  0  0  0  0  0
    2.2542   -8.3414    0.0589 H   0  0  0  0  0  0  0  0  0  0  0  0
    4.9022   -2.3851    0.0368 F   0  0  0  0  0  0  0  0  0  0  0  0
    5.9869   -0.0699    0.0132 H   0  0  0  0  0  0  0  0  0  0  0  0
    4.9037    2.3024   -0.0091 F   0  0  0  0  0  0  0  0  0  0  0  0
    2.3097    2.1275   -0.0772 H   0  0  0  0  0  0  0  0  0  0  0  0
  1  2  1  0  0  0  0
  2  3  1  0  0  0  0
  2  7  2  0  0  0  0
  3  4  2  0  0  0  0
  3 30  1  0  0  0  0
  4  5  1  0  0  0  0
  4 29  1  0  0  0  0
  5  6  2  0  0  0  0
  5 28  1  0  0  0  0
  6  7  1  0  0  0  0
  6 27  1  0  0  0  0
  7  8  1  0  0  0  0
  8  9  2  0  0  0  0
  8 12  1  0  0  0  0
  9 10  1  0  0  0  0
  9 11  1  0  0  0  0
 12 13  1  0  0  0  0
 12 14  1  0  0  0  0
 12 15  1  0  0  0  0
 15 16  1  0  0  0  0
 15 17  1  0  0  0  0
 15 22  1  0  0  0  0
 17 18  1  0  0  0  0
 17 19  1  0  0  0  0
 17 20  1  0  0  0  0
 20 21  1  0  0  0  0
 22 23  1  0  0  0  0
 22 24  1  0  0  0  0
 22 25  1  0  0  0  0
 25 26  1  0  0  0  0
M  END
$$$$
