
 OpenBabel05282315453D

 23 24  0  0  0  0  0  0  0  0999 V2000
    0.9321    0.0598    0.0839 H   0  0  0  0  0  0  0  0  0  0  0  0
    2.0171    0.0504    0.0549 C   0  0  0  0  0  0  0  0  0  0  0  0
    2.7112    1.2510    0.0425 C   0  0  0  0  0  0  0  0  0  0  0  0
    4.0551    1.3367   -0.0167 N   0  0  0  0  0  0  0  0  0  0  0  0
    4.7337    0.1654   -0.0546 C   0  0  0  0  0  0  0  0  0  0  0  0
    4.1361   -1.0891   -0.0170 C   0  0  0  0  0  0  0  0  0  0  0  0
    2.7392   -1.1513    0.0413 C   0  0  0  0  0  0  0  0  0  0  0  0
    1.9980   -2.4026    0.0461 C   0  0  0  0  0  0  0  0  0  0  0  0
    2.1079   -3.3742    1.0180 C   0  0  0  0  0  0  0  0  0  0  0  0
    1.2763   -4.4125    0.6791 N   0  0  0  0  0  0  0  0  0  0  0  0
    0.6075   -4.1281   -0.4960 C   0  0  0  0  0  0  0  0  0  0  0  0
    1.0410   -2.8723   -0.8924 C   0  0  0  0  0  0  0  0  0  0  0  0
    0.7237   -2.3475   -1.7821 H   0  0  0  0  0  0  0  0  0  0  0  0
   -0.3328   -5.0444   -1.0989 C   0  0  0  0  0  0  0  0  0  0  0  0
   -0.6185   -6.1396   -0.6229 O   0  0  0  0  0  0  0  0  0  0  0  0
   -0.9144   -4.6284   -2.2609 N   0  0  0  0  0  0  0  0  0  0  0  0
   -0.7076   -3.7452   -2.6995 H   0  0  0  0  0  0  0  0  0  0  0  0
   -1.5747   -5.2480   -2.7086 H   0  0  0  0  0  0  0  0  0  0  0  0
    1.1639   -5.2736    1.2025 H   0  0  0  0  0  0  0  0  0  0  0  0
    2.7188   -3.4303    1.9108 H   0  0  0  0  0  0  0  0  0  0  0  0
    5.2634   -2.6120   -0.0967 Br  0  0  0  0  0  0  0  0  0  0  0  0
    5.8127    0.2742   -0.1281 H   0  0  0  0  0  0  0  0  0  0  0  0
    2.1883    2.2031    0.0801 H   0  0  0  0  0  0  0  0  0  0  0  0
  1  2  1  0  0  0  0
  2  3  1  0  0  0  0
  2  7  2  0  0  0  0
  3  4  2  0  0  0  0
  3 23  1  0  0  0  0
  4  5  1  0  0  0  0
  5  6  2  0  0  0  0
  5 22  1  0  0  0  0
  6  7  1  0  0  0  0
  6 21  1  0  0  0  0
  7  8  1  0  0  0  0
  8  9  2  0  0  0  0
  8 12  1  0  0  0  0
  9 10  1  0  0  0  0
  9 20  1  0  0  0  0
 10 11  1  0  0  0  0
 10 19  1  0  0  0  0
 11 12  2  0  0  0  0
 11 14  1  0  0  0  0
 12 13  1  0  0  0  0
 14 15  2  0  0  0  0
 14 16  1  0  0  0  0
 16 17  1  0  0  0  0
 16 18  1  0  0  0  0
M  END
$$$$
