
 OpenBabel05282315453D

 48 52  0  0  1  0  0  0  0  0999 V2000
    0.7862    0.0224    0.0080 H   0  0  0  0  0  0  0  0  0  0  0  0
    1.8857    0.1000    0.2303 C   0  0  0  0  0  0  0  0  0  0  0  0
    2.8097    1.3817    0.2423 C   0  0  0  0  0  0  0  0  0  0  0  0
    4.5303    0.9845    0.8412 O   0  0  0  0  0  0  0  0  0  0  0  0
    4.7712   -0.9312    1.0787 C   0  0  0  0  0  0  0  0  0  0  0  0
    3.0607   -1.3801    0.4418 C   0  0  0  0  0  0  0  0  0  0  0  0
    2.6475   -2.7021    0.4153 C   0  0  1  0  0  0  0  0  0  0  0  0
    3.2081   -2.8308   -1.3966 C   0  0  0  0  0  0  0  0  0  0  0  0
    4.2286   -1.2436   -1.9440 C   0  0  2  0  0  0  0  0  0  0  0  0
    4.4621   -0.0985   -0.4523 C   0  0  2  0  0  0  0  0  0  0  0  0
    3.3951   -0.0553    1.4975 C   0  0  0  0  0  0  0  0  0  0  0  0
    3.2824    0.7088    2.5140 O   0  0  0  0  0  0  0  0  0  0  0  0
    2.8619   -1.7689    1.7479 O   0  0  0  0  0  0  0  0  0  0  0  0
    5.3985    0.9822   -1.2727 C   0  0  0  0  0  0  0  0  0  0  0  0
    6.0728    0.5640   -2.6518 C   0  0  0  0  0  0  0  0  0  0  0  0
    5.2180   -0.0686   -3.8262 C   0  0  2  0  0  0  0  0  0  0  0  0
    4.0501   -0.1951   -3.1053 C   0  0  1  0  0  0  0  0  0  0  0  0
    3.8478    1.8794   -3.1153 C   0  0  1  0  0  0  0  0  0  0  0  0
    2.4308    2.0914   -2.9065 C   0  0  0  0  0  0  0  0  0  0  0  0
    2.3078    1.0011   -3.6636 C   0  0  0  0  0  0  0  0  0  0  0  0
    3.8681    0.5501   -4.6848 C   0  0  2  0  0  0  0  0  0  0  0  0
    4.8035    1.6334   -5.1290 C   0  0  0  0  0  0  0  0  0  0  0  0
    5.7238    1.5277   -5.9207 O   0  0  0  0  0  0  0  0  0  0  0  0
    4.7115    2.5401   -4.1507 O   0  0  0  0  0  0  0  0  0  0  0  0
    3.1628   -0.0421   -5.6854 O   0  0  0  0  0  0  0  0  0  0  0  0
    2.5527    0.7242   -5.7653 H   0  0  0  0  0  0  0  0  0  0  0  0
    1.7957    0.2764   -3.0246 H   0  0  0  0  0  0  0  0  0  0  0  0
    1.9454    2.6018   -2.0702 H   0  0  0  0  0  0  0  0  0  0  0  0
    3.2697    2.7238   -3.7932 H   0  0  0  0  0  0  0  0  0  0  0  0
    3.6478   -1.0700   -3.7511 H   0  0  0  0  0  0  0  0  0  0  0  0
    5.9608   -1.1612   -4.5117 C   0  0  0  0  0  0  0  0  0  0  0  0
    6.4004   -1.9189   -3.8505 H   0  0  0  0  0  0  0  0  0  0  0  0
    5.3409   -1.6443   -5.2642 H   0  0  0  0  0  0  0  0  0  0  0  0
    6.7741   -0.6146   -4.9899 H   0  0  0  0  0  0  0  0  0  0  0  0
    6.4425    1.4973   -3.0519 H   0  0  0  0  0  0  0  0  0  0  0  0
    6.9046   -0.1076   -2.3942 H   0  0  0  0  0  0  0  0  0  0  0  0
    4.7295    1.7853   -1.4400 H   0  0  0  0  0  0  0  0  0  0  0  0
    6.1501    1.3479   -0.6007 H   0  0  0  0  0  0  0  0  0  0  0  0
    5.4994   -0.7562   -0.6196 H   0  0  0  0  0  0  0  0  0  0  0  0
    3.1357   -0.6340   -1.4827 C   0  0  0  0  0  0  0  0  0  0  0  0
    2.1367   -0.8700   -1.6163 H   0  0  0  0  0  0  0  0  0  0  0  0
    4.0254   -1.5699   -0.8840 H   0  0  0  0  0  0  0  0  0  0  0  0
    3.1930    0.4656   -1.5184 H   0  0  0  0  0  0  0  0  0  0  0  0
    3.9237   -3.6400   -1.2834 H   0  0  0  0  0  0  0  0  0  0  0  0
    2.3878   -3.0345   -2.1042 H   0  0  0  0  0  0  0  0  0  0  0  0
    1.5850   -3.0039    0.3604 H   0  0  0  0  0  0  0  0  0  0  0  0
    6.4190   -1.9072    1.1275 Br  0  0  0  0  0  0  0  0  0  0  0  0
    2.5913    2.4431    0.0615 H   0  0  0  0  0  0  0  0  0  0  0  0
  1  2  1  0  0  0  0
  2  3  2  0  0  0  0
  2  6  1  0  0  0  0
  3  4  1  0  0  0  0
  3 48  1  0  0  0  0
  4  5  1  0  0  0  0
  5  6  2  0  0  0  0
  5 47  1  0  0  0  0
  6  7  1  0  0  0  0
  7  8  1  0  0  0  0
  7 13  1  0  0  0  0
  7 46  1  6  0  0  0
  8  9  1  0  0  0  0
  8 44  1  0  0  0  0
  8 45  1  0  0  0  0
  9 10  1  0  0  0  0
  9 17  1  0  0  0  0
  9 40  1  6  0  0  0
 10 11  1  0  0  0  0
 10 14  1  0  0  0  0
 10 39  1  1  0  0  0
 11 12  2  0  0  0  0
 11 13  1  0  0  0  0
 14 15  1  0  0  0  0
 14 37  1  0  0  0  0
 14 38  1  0  0  0  0
 15 16  1  0  0  0  0
 15 35  1  0  0  0  0
 15 36  1  0  0  0  0
 16 17  1  0  0  0  0
 16 21  1  0  0  0  0
 16 31  1  1  0  0  0
 17 18  1  0  0  0  0
 17 30  1  1  0  0  0
 18 19  1  0  0  0  0
 18 24  1  0  0  0  0
 18 29  1  6  0  0  0
 19 20  2  0  0  0  0
 19 28  1  0  0  0  0
 20 21  1  0  0  0  0
 20 27  1  0  0  0  0
 21 22  1  0  0  0  0
 21 25  1  1  0  0  0
 22 23  2  0  0  0  0
 22 24  1  0  0  0  0
 25 26  1  0  0  0  0
 31 32  1  0  0  0  0
 31 33  1  0  0  0  0
 31 34  1  0  0  0  0
 40 41  1  0  0  0  0
 40 42  1  0  0  0  0
 40 43  1  0  0  0  0
M  END
$$$$
