
 OpenBabel05282315453D

 47 50  0  0  0  0  0  0  0  0999 V2000
    0.9514   -0.0680   -0.2149 H   0  0  0  0  0  0  0  0  0  0  0  0
    2.0301   -0.0184   -0.1078 C   0  0  0  0  0  0  0  0  0  0  0  0
    2.8041   -1.1753   -0.0383 C   0  0  0  0  0  0  0  0  0  0  0  0
    4.1967   -1.0944    0.1255 C   0  0  0  0  0  0  0  0  0  0  0  0
    4.8443    0.1545    0.1364 C   0  0  0  0  0  0  0  0  0  0  0  0
    4.0272    1.2913    0.1027 C   0  0  0  0  0  0  0  0  0  0  0  0
    2.6457    1.2164   -0.0243 C   0  0  0  0  0  0  0  0  0  0  0  0
    2.0772    2.1402   -0.0742 H   0  0  0  0  0  0  0  0  0  0  0  0
    4.4196    2.2957    0.1669 H   0  0  0  0  0  0  0  0  0  0  0  0
    6.3674    0.2365    0.1243 C   0  0  0  0  0  0  0  0  0  0  0  0
    6.7442   -0.2767    1.0221 H   0  0  0  0  0  0  0  0  0  0  0  0
    6.7237   -0.3266   -0.7475 H   0  0  0  0  0  0  0  0  0  0  0  0
    7.0113    1.6431    0.1069 C   0  0  0  0  0  0  0  0  0  0  0  0
    6.4152    2.7152    0.1755 O   0  0  0  0  0  0  0  0  0  0  0  0
    8.3800    1.6870    0.1705 N   0  0  0  0  0  0  0  0  0  0  0  0
    9.2993    0.9468   -0.6598 C   0  0  0  0  0  0  0  0  0  0  0  0
   10.5716    1.0385    0.1609 C   0  0  0  0  0  0  0  0  0  0  0  0
   10.5452    2.4800    0.7191 C   0  0  0  0  0  0  0  0  0  0  0  0
    9.0513    2.7936    0.8498 C   0  0  0  0  0  0  0  0  0  0  0  0
    8.7130    2.7831    1.8929 H   0  0  0  0  0  0  0  0  0  0  0  0
    8.7562    3.7599    0.4211 H   0  0  0  0  0  0  0  0  0  0  0  0
   11.0443    2.5402    1.6943 H   0  0  0  0  0  0  0  0  0  0  0  0
   11.2119    3.4091   -0.1761 N   0  0  0  0  0  0  0  0  0  0  0  0
   10.8223    3.7747   -1.4270 C   0  0  0  0  0  0  0  0  0  0  0  0
   11.8559    4.5436   -1.8967 C   0  0  0  0  0  0  0  0  0  0  0  0
   12.8102    4.6551   -0.9212 N   0  0  0  0  0  0  0  0  0  0  0  0
   12.3937    3.9672    0.1433 N   0  0  0  0  0  0  0  0  0  0  0  0
   11.8700    5.1327   -3.2176 C   0  0  0  0  0  0  0  0  0  0  0  0
   10.8103    5.9372   -3.6255 C   0  0  0  0  0  0  0  0  0  0  0  0
   10.8080    6.4211   -4.9330 C   0  0  0  0  0  0  0  0  0  0  0  0
   11.8518    6.0763   -5.7905 C   0  0  0  0  0  0  0  0  0  0  0  0
   12.8552    5.2588   -5.3010 C   0  0  0  0  0  0  0  0  0  0  0  0
   12.8838    4.7757   -4.0399 N   0  0  0  0  0  0  0  0  0  0  0  0
   13.6911    4.9615   -5.9292 H   0  0  0  0  0  0  0  0  0  0  0  0
   11.8874    6.4372   -6.8136 H   0  0  0  0  0  0  0  0  0  0  0  0
    9.7275    7.2976   -5.4429 C   0  0  0  0  0  0  0  0  0  0  0  0
    9.6665    7.7633   -6.5704 O   0  0  0  0  0  0  0  0  0  0  0  0
    8.7787    7.5507   -4.5260 O   0  0  0  0  0  0  0  0  0  0  0  0
    8.1365    8.1398   -4.9782 H   0  0  0  0  0  0  0  0  0  0  0  0
   10.0071    6.1789   -2.9370 H   0  0  0  0  0  0  0  0  0  0  0  0
    9.8981    3.4632   -1.8839 H   0  0  0  0  0  0  0  0  0  0  0  0
   10.4854    0.3226    0.9877 H   0  0  0  0  0  0  0  0  0  0  0  0
   11.4686    0.8048   -0.4167 H   0  0  0  0  0  0  0  0  0  0  0  0
    9.3945    1.4712   -1.6181 H   0  0  0  0  0  0  0  0  0  0  0  0
    8.9550   -0.0606   -0.8884 H   0  0  0  0  0  0  0  0  0  0  0  0
    4.7591   -2.0206    0.2334 H   0  0  0  0  0  0  0  0  0  0  0  0
    2.3163   -2.1426   -0.1278 H   0  0  0  0  0  0  0  0  0  0  0  0
  1  2  1  0  0  0  0
  2  3  1  0  0  0  0
  2  7  2  0  0  0  0
  3  4  2  0  0  0  0
  3 47  1  0  0  0  0
  4  5  1  0  0  0  0
  4 46  1  0  0  0  0
  5  6  2  0  0  0  0
  5 10  1  0  0  0  0
  6  7  1  0  0  0  0
  6  9  1  0  0  0  0
  7  8  1  0  0  0  0
 10 11  1  0  0  0  0
 10 12  1  0  0  0  0
 10 13  1  0  0  0  0
 13 14  2  0  0  0  0
 13 15  1  0  0  0  0
 15 16  1  0  0  0  0
 15 19  1  0  0  0  0
 16 17  1  0  0  0  0
 16 44  1  0  0  0  0
 16 45  1  0  0  0  0
 17 18  1  0  0  0  0
 17 42  1  0  0  0  0
 17 43  1  0  0  0  0
 18 19  1  0  0  0  0
 18 22  1  0  0  0  0
 18 23  1  0  0  0  0
 19 20  1  0  0  0  0
 19 21  1  0  0  0  0
 23 24  1  0  0  0  0
 23 27  1  0  0  0  0
 24 25  2  0  0  0  0
 24 41  1  0  0  0  0
 25 26  1  0  0  0  0
 25 28  1  0  0  0  0
 26 27  2  0  0  0  0
 28 29  1  0  0  0  0
 28 33  2  0  0  0  0
 29 30  2  0  0  0  0
 29 40  1  0  0  0  0
 30 31  1  0  0  0  0
 30 36  1  0  0  0  0
 31 32  2  0  0  0  0
 31 35  1  0  0  0  0
 32 33  1  0  0  0  0
 32 34  1  0  0  0  0
 36 37  2  0  0  0  0
 36 38  1  0  0  0  0
 38 39  1  0  0  0  0
M  END
$$$$
