
 OpenBabel05282315453D

 33 36  0  0  0  0  0  0  0  0999 V2000
    1.0599    0.0809    0.0099 H   0  0  0  0  0  0  0  0  0  0  0  0
    2.1495    0.0916    0.0301 C   0  0  0  0  0  0  0  0  0  0  0  0
    2.8301   -1.1336    0.0318 C   0  0  0  0  0  0  0  0  0  0  0  0
    4.2267   -1.1616    0.0410 C   0  0  0  0  0  0  0  0  0  0  0  0
    4.9331    0.0444    0.0495 C   0  0  0  0  0  0  0  0  0  0  0  0
    4.2518    1.2686    0.0454 C   0  0  0  0  0  0  0  0  0  0  0  0
    2.8429    1.3196    0.0242 C   0  0  0  0  0  0  0  0  0  0  0  0
    2.0742    2.5787   -0.0647 C   0  0  0  0  0  0  0  0  0  0  0  0
    1.1342    2.9371    0.9170 C   0  0  0  0  0  0  0  0  0  0  0  0
    0.3739    4.1049    0.7916 C   0  0  0  0  0  0  0  0  0  0  0  0
    0.5619    4.9359   -0.3159 C   0  0  0  0  0  0  0  0  0  0  0  0
    1.4759    4.6004   -1.3132 C   0  0  0  0  0  0  0  0  0  0  0  0
    2.2310    3.4319   -1.1743 C   0  0  0  0  0  0  0  0  0  0  0  0
    2.9703    3.1944   -1.9382 H   0  0  0  0  0  0  0  0  0  0  0  0
    1.6701    5.2556   -2.1596 H   0  0  0  0  0  0  0  0  0  0  0  0
   -0.1193    6.1621   -0.3786 N   0  0  0  0  0  0  0  0  0  0  0  0
   -0.8483    6.6752   -1.4138 C   0  0  0  0  0  0  0  0  0  0  0  0
   -1.3146    7.8621   -1.0821 N   0  0  0  0  0  0  0  0  0  0  0  0
   -0.8577    8.1530    0.1821 N   0  0  0  0  0  0  0  0  0  0  0  0
   -0.1439    7.1257    0.5922 C   0  0  0  0  0  0  0  0  0  0  0  0
    0.4081    7.0583    1.5164 H   0  0  0  0  0  0  0  0  0  0  0  0
   -1.0568    6.1445   -2.3290 H   0  0  0  0  0  0  0  0  0  0  0  0
   -0.3891    4.3256    1.5361 H   0  0  0  0  0  0  0  0  0  0  0  0
    0.9915    2.3110    1.7963 H   0  0  0  0  0  0  0  0  0  0  0  0
    5.2257    2.7014    0.0843 Cl  0  0  0  0  0  0  0  0  0  0  0  0
    6.0213    0.0312    0.0474 H   0  0  0  0  0  0  0  0  0  0  0  0
    4.9422   -2.4220    0.0501 C   0  0  0  0  0  0  0  0  0  0  0  0
    5.8517   -2.7654    0.9770 N   0  0  0  0  0  0  0  0  0  0  0  0
    6.1903   -3.9853    0.5308 N   0  0  0  0  0  0  0  0  0  0  0  0
    5.5855   -4.3862   -0.5939 N   0  0  0  0  0  0  0  0  0  0  0  0
    4.7665   -3.3911   -0.9074 N   0  0  0  0  0  0  0  0  0  0  0  0
    6.8621   -4.5738    1.0156 H   0  0  0  0  0  0  0  0  0  0  0  0
    2.2607   -2.0620    0.0301 H   0  0  0  0  0  0  0  0  0  0  0  0
  1  2  1  0  0  0  0
  2  3  1  0  0  0  0
  2  7  2  0  0  0  0
  3  4  2  0  0  0  0
  3 33  1  0  0  0  0
  4  5  1  0  0  0  0
  4 27  1  0  0  0  0
  5  6  2  0  0  0  0
  5 26  1  0  0  0  0
  6  7  1  0  0  0  0
  6 25  1  0  0  0  0
  7  8  1  0  0  0  0
  8  9  1  0  0  0  0
  8 13  2  0  0  0  0
  9 10  2  0  0  0  0
  9 24  1  0  0  0  0
 10 11  1  0  0  0  0
 10 23  1  0  0  0  0
 11 12  2  0  0  0  0
 11 16  1  0  0  0  0
 12 13  1  0  0  0  0
 12 15  1  0  0  0  0
 13 14  1  0  0  0  0
 16 17  1  0  0  0  0
 16 20  1  0  0  0  0
 17 18  2  0  0  0  0
 17 22  1  0  0  0  0
 18 19  1  0  0  0  0
 19 20  2  0  0  0  0
 20 21  1  0  0  0  0
 27 28  2  0  0  0  0
 27 31  1  0  0  0  0
 28 29  1  0  0  0  0
 29 30  1  0  0  0  0
 29 32  1  0  0  0  0
 30 31  2  0  0  0  0
M  END
$$$$
