
 OpenBabel05282315463D

 41 43  0  0  1  0  0  0  0  0999 V2000
    0.9301   -0.0577   -0.0590 H   0  0  0  0  0  0  0  0  0  0  0  0
    2.0130   -0.0050   -0.0698 C   0  0  0  0  0  0  0  0  0  0  0  0
    2.7545   -1.1787   -0.0404 C   0  0  0  0  0  0  0  0  0  0  0  0
    4.1018   -1.2204   -0.0688 N   0  0  0  0  0  0  0  0  0  0  0  0
    4.7950   -0.0573   -0.0804 C   0  0  0  0  0  0  0  0  0  0  0  0
    4.1137    1.1716   -0.0949 C   0  0  0  0  0  0  0  0  0  0  0  0
    2.6947    1.2167   -0.1084 C   0  0  0  0  0  0  0  0  0  0  0  0
    1.8380    2.4927   -0.1578 C   0  0  0  0  0  0  0  0  0  0  0  0
    1.1775    2.4142   -1.0301 H   0  0  0  0  0  0  0  0  0  0  0  0
    1.2120    2.5128    0.7408 H   0  0  0  0  0  0  0  0  0  0  0  0
    2.5927    3.8093   -0.2627 C   0  0  0  0  0  0  0  0  0  0  0  0
    3.2673    3.8993    0.5900 H   0  0  0  0  0  0  0  0  0  0  0  0
    3.1145    3.8162   -1.2227 H   0  0  0  0  0  0  0  0  0  0  0  0
    1.8659    5.1043   -0.2739 C   0  0  0  0  0  0  0  0  0  0  0  0
    1.0802    5.2112   -1.3578 F   0  0  0  0  0  0  0  0  0  0  0  0
    1.1356    5.2748    0.8385 F   0  0  0  0  0  0  0  0  0  0  0  0
    2.7873    6.1012   -0.3273 F   0  0  0  0  0  0  0  0  0  0  0  0
    4.9488    2.4056   -0.0632 C   0  0  0  0  0  0  0  0  0  0  0  0
    6.3919    2.3320   -0.3901 C   0  0  0  0  0  0  0  0  0  0  0  0
    7.0056    1.0909    0.1888 C   0  0  1  0  0  0  0  0  0  0  0  0
    6.1799   -0.0789   -0.1075 N   0  0  0  0  0  0  0  0  0  0  0  0
    6.7904   -1.3032   -0.5881 C   0  0  0  0  0  0  0  0  0  0  0  0
    8.3284   -1.3645   -0.4960 C   0  0  0  0  0  0  0  0  0  0  0  0
    9.1527   -0.1552   -0.3276 N   0  0  0  0  0  0  0  0  0  0  0  0
    8.3886    1.0704   -0.4782 C   0  0  0  0  0  0  0  0  0  0  0  0
    8.9684    1.9115   -0.0670 H   0  0  0  0  0  0  0  0  0  0  0  0
    8.2685    1.2889   -1.5499 H   0  0  0  0  0  0  0  0  0  0  0  0
   10.2416   -0.1476   -1.3051 C   0  0  0  0  0  0  0  0  0  0  0  0
    9.8543   -0.1103   -2.3324 H   0  0  0  0  0  0  0  0  0  0  0  0
   10.8964    0.7182   -1.1586 H   0  0  0  0  0  0  0  0  0  0  0  0
   10.8501   -1.0483   -1.1979 H   0  0  0  0  0  0  0  0  0  0  0  0
    8.6433   -1.9138   -1.3919 H   0  0  0  0  0  0  0  0  0  0  0  0
    8.5833   -2.0154    0.3473 H   0  0  0  0  0  0  0  0  0  0  0  0
    6.5070   -1.4204   -1.6417 H   0  0  0  0  0  0  0  0  0  0  0  0
    6.3981   -2.1678   -0.0394 H   0  0  0  0  0  0  0  0  0  0  0  0
    7.1011    1.1874    1.2780 H   0  0  0  0  0  0  0  0  0  0  0  0
    6.8842    3.2422   -0.0220 H   0  0  0  0  0  0  0  0  0  0  0  0
    6.4919    2.3561   -1.4859 H   0  0  0  0  0  0  0  0  0  0  0  0
    4.8541    2.8545    0.9274 H   0  0  0  0  0  0  0  0  0  0  0  0
    4.6399    3.0428   -0.8773 H   0  0  0  0  0  0  0  0  0  0  0  0
    2.2609   -2.1462    0.0089 H   0  0  0  0  0  0  0  0  0  0  0  0
  1  2  1  0  0  0  0
  2  3  1  0  0  0  0
  2  7  2  0  0  0  0
  3  4  2  0  0  0  0
  3 41  1  0  0  0  0
  4  5  1  0  0  0  0
  5  6  2  0  0  0  0
  5 21  1  0  0  0  0
  6  7  1  0  0  0  0
  6 18  1  0  0  0  0
  7  8  1  0  0  0  0
  8  9  1  0  0  0  0
  8 10  1  0  0  0  0
  8 11  1  0  0  0  0
 11 12  1  0  0  0  0
 11 13  1  0  0  0  0
 11 14  1  0  0  0  0
 14 15  1  0  0  0  0
 14 16  1  0  0  0  0
 14 17  1  0  0  0  0
 18 19  1  0  0  0  0
 18 39  1  0  0  0  0
 18 40  1  0  0  0  0
 19 20  1  0  0  0  0
 19 37  1  0  0  0  0
 19 38  1  0  0  0  0
 20 21  1  0  0  0  0
 20 25  1  0  0  0  0
 20 36  1  1  0  0  0
 21 22  1  0  0  0  0
 22 23  1  0  0  0  0
 22 34  1  0  0  0  0
 22 35  1  0  0  0  0
 23 24  1  0  0  0  0
 23 32  1  0  0  0  0
 23 33  1  0  0  0  0
 24 25  1  0  0  0  0
 24 28  1  0  0  0  0
 25 26  1  0  0  0  0
 25 27  1  0  0  0  0
 28 29  1  0  0  0  0
 28 30  1  0  0  0  0
 28 31  1  0  0  0  0
M  END
$$$$
