
 OpenBabel05282315463D

 46 49  0  0  0  0  0  0  0  0999 V2000
    0.9752   -0.1110   -0.0720 H   0  0  0  0  0  0  0  0  0  0  0  0
    2.0628   -0.1110   -0.0643 C   0  0  0  0  0  0  0  0  0  0  0  0
    2.7579    1.1014   -0.0265 C   0  0  0  0  0  0  0  0  0  0  0  0
    4.1487    1.0973    0.0058 C   0  0  0  0  0  0  0  0  0  0  0  0
    4.8613   -0.0953    0.0082 C   0  0  0  0  0  0  0  0  0  0  0  0
    4.1690   -1.3073   -0.0297 C   0  0  0  0  0  0  0  0  0  0  0  0
    2.7646   -1.3223   -0.0672 C   0  0  0  0  0  0  0  0  0  0  0  0
    2.0424   -2.5815   -0.0430 C   0  0  0  0  0  0  0  0  0  0  0  0
    2.1518   -3.5315    0.9512 C   0  0  0  0  0  0  0  0  0  0  0  0
    1.2842   -4.5311    0.5715 N   0  0  0  0  0  0  0  0  0  0  0  0
    0.7021   -4.1606   -0.6290 C   0  0  0  0  0  0  0  0  0  0  0  0
    1.1477   -2.9765   -1.0064 N   0  0  0  0  0  0  0  0  0  0  0  0
   -0.1944   -5.0222   -1.4049 C   0  0  0  0  0  0  0  0  0  0  0  0
   -1.4277   -5.4628   -0.9176 C   0  0  0  0  0  0  0  0  0  0  0  0
   -2.2461   -6.2903   -1.7067 C   0  0  0  0  0  0  0  0  0  0  0  0
   -1.8699   -6.6637   -3.0087 C   0  0  0  0  0  0  0  0  0  0  0  0
   -0.6358   -6.2252   -3.4894 C   0  0  0  0  0  0  0  0  0  0  0  0
    0.1848   -5.4062   -2.6981 C   0  0  0  0  0  0  0  0  0  0  0  0
    1.1303   -5.0501   -3.1046 H   0  0  0  0  0  0  0  0  0  0  0  0
   -0.2841   -6.4802   -4.4828 H   0  0  0  0  0  0  0  0  0  0  0  0
   -3.0363   -7.6738   -3.9629 S   0  0  0  0  0  0  0  0  0  0  0  0
   -4.2624   -6.8179   -4.0933 O   0  0  0  0  0  0  0  0  0  0  0  0
   -2.2696   -7.7797   -5.5915 C   0  0  0  0  0  0  0  0  0  0  0  0
   -2.0971   -6.7863   -6.0122 H   0  0  0  0  0  0  0  0  0  0  0  0
   -1.3357   -8.3429   -5.5287 H   0  0  0  0  0  0  0  0  0  0  0  0
   -2.9518   -8.3214   -6.2543 H   0  0  0  0  0  0  0  0  0  0  0  0
   -3.2013   -6.6278   -1.3046 H   0  0  0  0  0  0  0  0  0  0  0  0
   -1.7906   -5.1382    0.0551 H   0  0  0  0  0  0  0  0  0  0  0  0
    1.1123   -5.3950    1.0588 H   0  0  0  0  0  0  0  0  0  0  0  0
    2.8703   -3.5579    2.1854 C   0  0  0  0  0  0  0  0  0  0  0  0
    3.8252   -4.4826    2.3638 C   0  0  0  0  0  0  0  0  0  0  0  0
    4.8165   -4.4367    3.4989 C   0  0  0  0  0  0  0  0  0  0  0  0
    4.8116   -3.1935    4.2023 O   0  0  0  0  0  0  0  0  0  0  0  0
    3.4981   -2.7273    4.4938 C   0  0  0  0  0  0  0  0  0  0  0  0
    2.7361   -2.4429    3.2068 C   0  0  0  0  0  0  0  0  0  0  0  0
    1.6790   -2.2743    3.4390 H   0  0  0  0  0  0  0  0  0  0  0  0
    3.1270   -1.5181    2.7679 H   0  0  0  0  0  0  0  0  0  0  0  0
    2.9724   -3.4504    5.1273 H   0  0  0  0  0  0  0  0  0  0  0  0
    3.5940   -1.7969    5.0648 H   0  0  0  0  0  0  0  0  0  0  0  0
    5.8272   -4.5514    3.0921 H   0  0  0  0  0  0  0  0  0  0  0  0
    4.6470   -5.2582    4.2018 H   0  0  0  0  0  0  0  0  0  0  0  0
    3.9949   -5.2749    1.6361 H   0  0  0  0  0  0  0  0  0  0  0  0
    4.7285   -2.2398   -0.0162 H   0  0  0  0  0  0  0  0  0  0  0  0
    5.9457   -0.0764    0.0442 H   0  0  0  0  0  0  0  0  0  0  0  0
    4.8122    2.2607    0.0382 F   0  0  0  0  0  0  0  0  0  0  0  0
    2.2245    2.0462   -0.0192 H   0  0  0  0  0  0  0  0  0  0  0  0
  1  2  1  0  0  0  0
  2  3  1  0  0  0  0
  2  7  2  0  0  0  0
  3  4  2  0  0  0  0
  3 46  1  0  0  0  0
  4  5  1  0  0  0  0
  4 45  1  0  0  0  0
  5  6  2  0  0  0  0
  5 44  1  0  0  0  0
  6  7  1  0  0  0  0
  6 43  1  0  0  0  0
  7  8  1  0  0  0  0
  8  9  2  0  0  0  0
  8 12  1  0  0  0  0
  9 10  1  0  0  0  0
  9 30  1  0  0  0  0
 10 11  1  0  0  0  0
 10 29  1  0  0  0  0
 11 12  2  0  0  0  0
 11 13  1  0  0  0  0
 13 14  1  0  0  0  0
 13 18  2  0  0  0  0
 14 15  2  0  0  0  0
 14 28  1  0  0  0  0
 15 16  1  0  0  0  0
 15 27  1  0  0  0  0
 16 17  2  0  0  0  0
 16 21  1  0  0  0  0
 17 18  1  0  0  0  0
 17 20  1  0  0  0  0
 18 19  1  0  0  0  0
 21 22  2  0  0  0  0
 21 23  1  0  0  0  0
 23 24  1  0  0  0  0
 23 25  1  0  0  0  0
 23 26  1  0  0  0  0
 30 31  2  0  0  0  0
 30 35  1  0  0  0  0
 31 32  1  0  0  0  0
 31 42  1  0  0  0  0
 32 33  1  0  0  0  0
 32 40  1  0  0  0  0
 32 41  1  0  0  0  0
 33 34  1  0  0  0  0
 34 35  1  0  0  0  0
 34 38  1  0  0  0  0
 34 39  1  0  0  0  0
 35 36  1  0  0  0  0
 35 37  1  0  0  0  0
M  END
$$$$
