
 OpenBabel05282315463D

 29 29  0  0  0  0  0  0  0  0999 V2000
    1.0946    0.1211    0.0879 H   0  0  0  0  0  0  0  0  0  0  0  0
    2.1792    0.1183    0.0087 C   0  0  0  0  0  0  0  0  0  0  0  0
    2.8784    1.3293    0.0002 C   0  0  0  0  0  0  0  0  0  0  0  0
    4.2641    1.3407   -0.2294 C   0  0  0  0  0  0  0  0  0  0  0  0
    4.9940    0.1460   -0.3271 C   0  0  0  0  0  0  0  0  0  0  0  0
    4.2946   -1.0610   -0.1632 C   0  0  0  0  0  0  0  0  0  0  0  0
    2.8958   -1.0702   -0.0705 C   0  0  0  0  0  0  0  0  0  0  0  0
    2.2609   -2.2811   -0.0734 O   0  0  0  0  0  0  0  0  0  0  0  0
    1.2987   -2.1528   -0.1374 H   0  0  0  0  0  0  0  0  0  0  0  0
    4.8261   -2.0070   -0.1249 H   0  0  0  0  0  0  0  0  0  0  0  0
    6.4123    0.1493   -0.6379 C   0  0  0  0  0  0  0  0  0  0  0  0
    7.5905    0.1785   -0.9292 C   0  0  0  0  0  0  0  0  0  0  0  0
    9.0031    0.2034   -1.2319 C   0  0  0  0  0  0  0  0  0  0  0  0
    9.9155   -0.0896   -0.2811 C   0  0  0  0  0  0  0  0  0  0  0  0
   10.9738   -0.0689   -0.5467 H   0  0  0  0  0  0  0  0  0  0  0  0
    9.5961   -0.4495    1.1433 C   0  0  0  0  0  0  0  0  0  0  0  0
    9.0671    0.3866    1.6124 H   0  0  0  0  0  0  0  0  0  0  0  0
    8.9744   -1.3506    1.1533 H   0  0  0  0  0  0  0  0  0  0  0  0
   10.8347   -0.7359    1.9772 C   0  0  0  0  0  0  0  0  0  0  0  0
   12.0029   -0.7051    1.6256 O   0  0  0  0  0  0  0  0  0  0  0  0
   10.5174   -1.0566    3.2514 O   0  0  0  0  0  0  0  0  0  0  0  0
   11.3782   -1.2189    3.6916 H   0  0  0  0  0  0  0  0  0  0  0  0
    9.4915    0.5517   -2.6201 C   0  0  0  0  0  0  0  0  0  0  0  0
    9.1036   -0.1536   -3.3612 H   0  0  0  0  0  0  0  0  0  0  0  0
    9.1937    1.5667   -2.9011 H   0  0  0  0  0  0  0  0  0  0  0  0
   10.5881    0.5145   -2.6947 H   0  0  0  0  0  0  0  0  0  0  0  0
    4.9202    2.5349   -0.3739 O   0  0  0  0  0  0  0  0  0  0  0  0
    4.2825    3.2658   -0.3671 H   0  0  0  0  0  0  0  0  0  0  0  0
    2.3277    2.2518    0.1632 H   0  0  0  0  0  0  0  0  0  0  0  0
  1  2  1  0  0  0  0
  2  3  1  0  0  0  0
  2  7  2  0  0  0  0
  3  4  2  0  0  0  0
  3 29  1  0  0  0  0
  4  5  1  0  0  0  0
  4 27  1  0  0  0  0
  5  6  2  0  0  0  0
  5 11  1  0  0  0  0
  6  7  1  0  0  0  0
  6 10  1  0  0  0  0
  7  8  1  0  0  0  0
  8  9  1  0  0  0  0
 11 12  3  0  0  0  0
 12 13  1  0  0  0  0
 13 14  2  0  0  0  0
 13 23  1  0  0  0  0
 14 15  1  0  0  0  0
 14 16  1  0  0  0  0
 16 17  1  0  0  0  0
 16 18  1  0  0  0  0
 16 19  1  0  0  0  0
 19 20  2  0  0  0  0
 19 21  1  0  0  0  0
 21 22  1  0  0  0  0
 23 24  1  0  0  0  0
 23 25  1  0  0  0  0
 23 26  1  0  0  0  0
 27 28  1  0  0  0  0
M  END
$$$$
