
 OpenBabel05282315463D

 26 27  0  0  0  0  0  0  0  0999 V2000
    0.8916    0.0649    0.1143 H   0  0  0  0  0  0  0  0  0  0  0  0
    1.9795    0.0213    0.0921 C   0  0  0  0  0  0  0  0  0  0  0  0
    2.6133   -1.1644    0.0108 C   0  0  0  0  0  0  0  0  0  0  0  0
    4.1235   -1.2548   -0.0357 C   0  0  0  0  0  0  0  0  0  0  0  0
    4.8056    0.0246    0.4531 C   0  0  0  0  0  0  0  0  0  0  0  0
    4.1719    1.2542   -0.1845 C   0  0  0  0  0  0  0  0  0  0  0  0
    2.6844    1.3429    0.1518 C   0  0  0  0  0  0  0  0  0  0  0  0
    2.5614    1.7405    1.1663 H   0  0  0  0  0  0  0  0  0  0  0  0
    2.2010    2.0488   -0.5325 H   0  0  0  0  0  0  0  0  0  0  0  0
    4.6811    2.1610    0.1591 H   0  0  0  0  0  0  0  0  0  0  0  0
    4.3015    1.2054   -1.2731 H   0  0  0  0  0  0  0  0  0  0  0  0
    5.8746   -0.0150    0.2176 H   0  0  0  0  0  0  0  0  0  0  0  0
    4.7195    0.0932    1.5455 H   0  0  0  0  0  0  0  0  0  0  0  0
    4.4301   -1.4650   -1.0682 H   0  0  0  0  0  0  0  0  0  0  0  0
    4.5062   -2.0821    0.5683 H   0  0  0  0  0  0  0  0  0  0  0  0
    1.8512   -2.4083   -0.0208 C   0  0  0  0  0  0  0  0  0  0  0  0
    1.9128   -3.3698    0.9136 C   0  0  0  0  0  0  0  0  0  0  0  0
    1.1691   -4.5062    0.8621 N   0  0  0  0  0  0  0  0  0  0  0  0
    0.2688   -4.7704   -0.1197 C   0  0  0  0  0  0  0  0  0  0  0  0
   -0.3975   -5.8004   -0.1320 O   0  0  0  0  0  0  0  0  0  0  0  0
    0.1542   -3.8153   -1.0824 N   0  0  0  0  0  0  0  0  0  0  0  0
    0.8705   -2.6504   -1.1339 C   0  0  0  0  0  0  0  0  0  0  0  0
    0.6971   -1.8546   -2.0531 O   0  0  0  0  0  0  0  0  0  0  0  0
   -0.5109   -3.9794   -1.8223 H   0  0  0  0  0  0  0  0  0  0  0  0
    1.2672   -5.1910    1.6003 H   0  0  0  0  0  0  0  0  0  0  0  0
    2.8725   -3.3310    2.3399 Cl  0  0  0  0  0  0  0  0  0  0  0  0
  1  2  1  0  0  0  0
  2  3  2  0  0  0  0
  2  7  1  0  0  0  0
  3  4  1  0  0  0  0
  3 16  1  0  0  0  0
  4  5  1  0  0  0  0
  4 14  1  0  0  0  0
  4 15  1  0  0  0  0
  5  6  1  0  0  0  0
  5 12  1  0  0  0  0
  5 13  1  0  0  0  0
  6  7  1  0  0  0  0
  6 10  1  0  0  0  0
  6 11  1  0  0  0  0
  7  8  1  0  0  0  0
  7  9  1  0  0  0  0
 16 17  2  0  0  0  0
 16 22  1  0  0  0  0
 17 18  1  0  0  0  0
 17 26  1  0  0  0  0
 18 19  1  0  0  0  0
 18 25  1  0  0  0  0
 19 20  2  0  0  0  0
 19 21  1  0  0  0  0
 21 22  1  0  0  0  0
 21 24  1  0  0  0  0
 22 23  2  0  0  0  0
M  END
$$$$
