
 OpenBabel05282315463D

 42 43  0  0  0  0  0  0  0  0999 V2000
    0.9769   -0.1003   -0.1165 H   0  0  0  0  0  0  0  0  0  0  0  0
    2.0649   -0.1234   -0.0978 C   0  0  0  0  0  0  0  0  0  0  0  0
    2.7486    1.1122   -0.0956 C   0  0  0  0  0  0  0  0  0  0  0  0
    4.1448    1.2108   -0.0782 C   0  0  0  0  0  0  0  0  0  0  0  0
    4.8083   -0.0290   -0.0705 C   0  0  0  0  0  0  0  0  0  0  0  0
    4.1397   -1.2897   -0.0802 C   0  0  0  0  0  0  0  0  0  0  0  0
    2.7328   -1.3537   -0.0939 C   0  0  0  0  0  0  0  0  0  0  0  0
    1.9168   -2.5250   -0.1756 N   0  0  0  0  0  0  0  0  0  0  0  0
    2.4951   -3.6012    0.0906 N   0  0  0  0  0  0  0  0  0  0  0  0
    1.7739   -4.7512   -0.0732 C   0  0  0  0  0  0  0  0  0  0  0  0
    0.7808   -4.9996   -0.9135 N   0  0  0  0  0  0  0  0  0  0  0  0
    0.3027   -6.2893   -0.7489 C   0  0  0  0  0  0  0  0  0  0  0  0
    0.9470   -7.0289    0.2077 C   0  0  0  0  0  0  0  0  0  0  0  0
    2.2103   -6.1355    0.9062 S   0  0  0  0  0  0  0  0  0  0  0  0
    0.6314   -8.3697    0.6008 N   0  3  0  0  0  0  0  0  0  0  0  0
    1.3084   -8.9027    1.4833 O   0  0  0  0  0  0  0  0  0  0  0  0
   -0.3257   -8.8988    0.0115 O   0  5  0  0  0  0  0  0  0  0  0  0
   -0.5310   -6.6298   -1.3533 H   0  0  0  0  0  0  0  0  0  0  0  0
    4.9921   -2.5270   -0.0978 C   0  0  0  0  0  0  0  0  0  0  0  0
    4.7929   -3.1291    0.7942 H   0  0  0  0  0  0  0  0  0  0  0  0
    4.7872   -3.1023   -1.0062 H   0  0  0  0  0  0  0  0  0  0  0  0
    6.0606   -2.2959   -0.0899 H   0  0  0  0  0  0  0  0  0  0  0  0
    5.8958   -0.0513   -0.0679 H   0  0  0  0  0  0  0  0  0  0  0  0
    4.8264    2.4289   -0.0735 N   0  0  0  0  0  0  0  0  0  0  0  0
    4.1259    3.7153   -0.0763 C   0  0  0  0  0  0  0  0  0  0  0  0
    4.3808    4.2871    0.8229 H   0  0  0  0  0  0  0  0  0  0  0  0
    4.4097    4.2977   -0.9599 H   0  0  0  0  0  0  0  0  0  0  0  0
    3.0392    3.6686   -0.0944 H   0  0  0  0  0  0  0  0  0  0  0  0
    6.3081    2.4538   -0.0441 C   0  0  0  0  0  0  0  0  0  0  0  0
    6.6650    1.9257    0.8497 H   0  0  0  0  0  0  0  0  0  0  0  0
    6.6993    1.9314   -0.9267 H   0  0  0  0  0  0  0  0  0  0  0  0
    6.9038    3.8666   -0.0279 C   0  0  0  0  0  0  0  0  0  0  0  0
    6.5757    4.4194   -0.9161 H   0  0  0  0  0  0  0  0  0  0  0  0
    6.5450    4.4122    0.8530 H   0  0  0  0  0  0  0  0  0  0  0  0
    8.4268    3.8653   -0.0013 C   0  0  0  0  0  0  0  0  0  0  0  0
    8.7862    3.3362    0.8881 H   0  0  0  0  0  0  0  0  0  0  0  0
    8.8169    3.3426   -0.8813 H   0  0  0  0  0  0  0  0  0  0  0  0
    8.9430    5.2961    0.0128 C   0  0  0  0  0  0  0  0  0  0  0  0
    8.6073    5.8396   -0.8770 H   0  0  0  0  0  0  0  0  0  0  0  0
    8.5768    5.8332    0.8945 H   0  0  0  0  0  0  0  0  0  0  0  0
   10.0356    5.3089    0.0317 H   0  0  0  0  0  0  0  0  0  0  0  0
    2.1182    1.9931   -0.1175 H   0  0  0  0  0  0  0  0  0  0  0  0
  1  2  1  0  0  0  0
  2  3  1  0  0  0  0
  2  7  2  0  0  0  0
  3  4  2  0  0  0  0
  3 42  1  0  0  0  0
  4  5  1  0  0  0  0
  4 24  1  0  0  0  0
  5  6  2  0  0  0  0
  5 23  1  0  0  0  0
  6  7  1  0  0  0  0
  6 19  1  0  0  0  0
  7  8  1  0  0  0  0
  8  9  2  0  0  0  0
  9 10  1  0  0  0  0
 10 11  2  0  0  0  0
 10 14  1  0  0  0  0
 11 12  1  0  0  0  0
 12 13  2  0  0  0  0
 12 18  1  0  0  0  0
 13 14  1  0  0  0  0
 13 15  1  0  0  0  0
 15 16  2  0  0  0  0
 15 17  1  0  0  0  0
 19 20  1  0  0  0  0
 19 21  1  0  0  0  0
 19 22  1  0  0  0  0
 24 25  1  0  0  0  0
 24 29  1  0  0  0  0
 25 26  1  0  0  0  0
 25 27  1  0  0  0  0
 25 28  1  0  0  0  0
 29 30  1  0  0  0  0
 29 31  1  0  0  0  0
 29 32  1  0  0  0  0
 32 33  1  0  0  0  0
 32 34  1  0  0  0  0
 32 35  1  0  0  0  0
 35 36  1  0  0  0  0
 35 37  1  0  0  0  0
 35 38  1  0  0  0  0
 38 39  1  0  0  0  0
 38 40  1  0  0  0  0
 38 41  1  0  0  0  0
M  CHG  2  15   1  17  -1
M  END
$$$$
