0 1 Brc1ccccc1
 OpenBabel07282316283D

 12 12  0  0  0  0  0  0  0  0999 V2000
   -0.1276    3.4253   -0.2850 Br  0  0  0  0  0  0  0  0  0  0  0  0
   -0.1091    1.7275    0.5357 C   0  0  0  0  0  0  0  0  0  0  0  0
   -0.5937    1.5930    1.8358 C   0  0  0  0  0  0  0  0  0  0  0  0
   -0.5763    0.3334    2.4356 C   0  0  0  0  0  0  0  0  0  0  0  0
   -0.0818   -0.7727    1.7444 C   0  0  0  0  0  0  0  0  0  0  0  0
    0.3990   -0.6187    0.4440 C   0  0  0  0  0  0  0  0  0  0  0  0
    0.3889    0.6338   -0.1707 C   0  0  0  0  0  0  0  0  0  0  0  0
   -0.9811    2.4691    2.3725 H   0  0  0  0  0  0  0  0  0  0  0  0
   -0.9563    0.2196    3.4595 H   0  0  0  0  0  0  0  0  0  0  0  0
   -0.0710   -1.7612    2.2222 H   0  0  0  0  0  0  0  0  0  0  0  0
    0.7897   -1.4850   -0.1061 H   0  0  0  0  0  0  0  0  0  0  0  0
    0.7653    0.7642   -1.1938 H   0  0  0  0  0  0  0  0  0  0  0  0
  1  2  1  0  0  0  0
  2  3  1  0  0  0  0
  3  8  1  0  0  0  0
  3  4  2  0  0  0  0
  4  9  1  0  0  0  0
  5 10  1  0  0  0  0
  5  4  1  0  0  0  0
  6  5  2  0  0  0  0
  7  6  1  0  0  0  0
  7  2  2  0  0  0  0
 11  6  1  0  0  0  0
 12  7  1  0  0  0  0
M  END
$$$$
