0 1 BrCBr
 OpenBabel07282316283D

  5  4  0  0  0  0  0  0  0  0999 V2000
    2.3310    1.3026    0.4406 Br  0  0  0  0  0  0  0  0  0  0  0  0
    0.4956    1.6392    0.8591 C   0  0  0  0  0  0  0  0  0  0  0  0
   -0.0023    3.4763    0.6742 Br  0  0  0  0  0  0  0  0  0  0  0  0
   -0.1420    1.0264    0.1932 H   0  0  0  0  0  0  0  0  0  0  0  0
    0.3008    1.3182    1.9005 H   0  0  0  0  0  0  0  0  0  0  0  0
  1  2  1  0  0  0  0
  2  5  1  0  0  0  0
  3  2  1  0  0  0  0
  4  2  1  0  0  0  0
M  END
$$$$
