0 1 BrCCBr
 OpenBabel07282316283D

  8  7  0  0  0  0  0  0  0  0999 V2000
    3.8953    2.3193    3.3710 Br  0  0  0  0  0  0  0  0  0  0  0  0
    2.3481    1.8594    2.3027 C   0  0  0  0  0  0  0  0  0  0  0  0
    1.3986    1.0379    3.1333 C   0  0  0  0  0  0  0  0  0  0  0  0
   -0.1486    0.5780    2.0649 Br  0  0  0  0  0  0  0  0  0  0  0  0
    1.8924    2.8060    1.9538 H   0  0  0  0  0  0  0  0  0  0  0  0
    2.7108    1.3119    1.4115 H   0  0  0  0  0  0  0  0  0  0  0  0
    1.8543    0.0913    3.4822 H   0  0  0  0  0  0  0  0  0  0  0  0
    1.0359    1.5854    4.0244 H   0  0  0  0  0  0  0  0  0  0  0  0
  2  3  1  0  0  0  0
  2  1  1  0  0  0  0
  3  7  1  0  0  0  0
  3  8  1  0  0  0  0
  4  3  1  0  0  0  0
  5  2  1  0  0  0  0
  6  2  1  0  0  0  0
M  END
$$$$
