0 1 BrCLBrRBr
 OpenBabel07282316283D

  5  4  0  0  0  0  0  0  0  0999 V2000
    0.0000    0.0000    0.0000 Br  0  0  0  0  0  0  0  0  0  0  0  0
   -1.6776    1.0540    0.1777 C   0  0  0  0  0  0  0  0  0  0  0  0
   -1.3642    3.0415    0.0893 Br  0  0  0  0  0  0  0  0  0  0  0  0
   -3.1579    0.3951   -1.0573 Br  0  0  0  0  0  0  0  0  0  0  0  0
   -1.9943    0.8570    1.2221 H   0  0  0  0  0  0  0  0  0  0  0  0
  1  2  1  0  0  0  0
  2  5  1  0  0  0  0
  3  2  1  0  0  0  0
  4  2  1  0  0  0  0
M  END
$$$$
