0 1 C
 OpenBabel07282316283D

  5  4  0  0  0  0  0  0  0  0999 V2000
    1.7232    0.8655    0.3708 C   0  0  0  0  0  0  0  0  0  0  0  0
    2.3116    1.7913    0.2892 H   0  0  0  0  0  0  0  0  0  0  0  0
    2.3005    0.1119    0.9266 H   0  0  0  0  0  0  0  0  0  0  0  0
    1.4971    0.4848   -0.6362 H   0  0  0  0  0  0  0  0  0  0  0  0
    0.7837    1.0739    0.9035 H   0  0  0  0  0  0  0  0  0  0  0  0
  1  5  1  0  0  0  0
  1  3  1  0  0  0  0
  2  1  1  0  0  0  0
  4  1  1  0  0  0  0
M  END
$$$$
