0 1 c1ccccc1
 OpenBabel07282316283D

 12 12  0  0  0  0  0  0  0  0999 V2000
   -0.6823    1.5331   -0.3205 C   0  0  0  0  0  0  0  0  0  0  0  0
    0.2718    0.7193   -0.9325 C   0  0  0  0  0  0  0  0  0  0  0  0
    1.1759   -0.0032   -0.1530 C   0  0  0  0  0  0  0  0  0  0  0  0
    1.1260    0.0881    1.2385 C   0  0  0  0  0  0  0  0  0  0  0  0
    0.1719    0.9019    1.8505 C   0  0  0  0  0  0  0  0  0  0  0  0
   -0.7322    1.6244    1.0710 C   0  0  0  0  0  0  0  0  0  0  0  0
   -1.3937    2.1017   -0.9339 H   0  0  0  0  0  0  0  0  0  0  0  0
    0.3111    0.6475   -2.0275 H   0  0  0  0  0  0  0  0  0  0  0  0
    1.9267   -0.6436   -0.6346 H   0  0  0  0  0  0  0  0  0  0  0  0
    1.8374   -0.4805    1.8518 H   0  0  0  0  0  0  0  0  0  0  0  0
    0.1326    0.9737    2.9454 H   0  0  0  0  0  0  0  0  0  0  0  0
   -1.4830    2.2648    1.5526 H   0  0  0  0  0  0  0  0  0  0  0  0
  1  6  1  0  0  0  0
  2  1  2  0  0  0  0
  2  3  1  0  0  0  0
  3  4  2  0  0  0  0
  4  5  1  0  0  0  0
  4 10  1  0  0  0  0
  5 11  1  0  0  0  0
  6 12  1  0  0  0  0
  6  5  2  0  0  0  0
  7  1  1  0  0  0  0
  8  2  1  0  0  0  0
  9  3  1  0  0  0  0
M  END
$$$$
