0 1 C1CCCS1
 OpenBabel07282316283D

 13 13  0  0  0  0  0  0  0  0999 V2000
    1.5987   -0.5367    0.4694 C   0  0  0  0  0  0  0  0  0  0  0  0
    0.5711   -1.4414   -0.2041 C   0  0  0  0  0  0  0  0  0  0  0  0
    0.0987   -0.6854   -1.4422 C   0  0  0  0  0  0  0  0  0  0  0  0
   -0.2836    0.7100   -0.9575 C   0  0  0  0  0  0  0  0  0  0  0  0
    0.9611    1.1688    0.3009 S   0  0  0  0  0  0  0  0  0  0  0  0
    2.5857   -0.6137   -0.0258 H   0  0  0  0  0  0  0  0  0  0  0  0
    1.7416   -0.7677    1.5426 H   0  0  0  0  0  0  0  0  0  0  0  0
    1.0045   -2.4301   -0.4491 H   0  0  0  0  0  0  0  0  0  0  0  0
   -0.2844   -1.6087    0.4782 H   0  0  0  0  0  0  0  0  0  0  0  0
   -0.7519   -1.1836   -1.9460 H   0  0  0  0  0  0  0  0  0  0  0  0
    0.9274   -0.6137   -2.1728 H   0  0  0  0  0  0  0  0  0  0  0  0
   -1.2915    0.7127   -0.4997 H   0  0  0  0  0  0  0  0  0  0  0  0
   -0.2794    1.4656   -1.7665 H   0  0  0  0  0  0  0  0  0  0  0  0
  1  7  1  0  0  0  0
  2  1  1  0  0  0  0
  2  9  1  0  0  0  0
  3  4  1  0  0  0  0
  3  2  1  0  0  0  0
  4 12  1  0  0  0  0
  4  5  1  0  0  0  0
  5  1  1  0  0  0  0
  6  1  1  0  0  0  0
  8  2  1  0  0  0  0
 10  3  1  0  0  0  0
 11  3  1  0  0  0  0
 13  4  1  0  0  0  0
M  END
$$$$
