0 1 C1CCCCC1
 OpenBabel07282316283D

 18 18  0  0  0  0  0  0  0  0999 V2000
   -0.2062    3.9867   -0.0614 C   0  0  0  0  0  0  0  0  0  0  0  0
   -0.9030    3.7302    1.2765 C   0  0  0  0  0  0  0  0  0  0  0  0
   -1.4414    2.2998    1.3486 C   0  0  0  0  0  0  0  0  0  0  0  0
   -0.3251    1.2813    1.1081 C   0  0  0  0  0  0  0  0  0  0  0  0
    0.3717    1.5378   -0.2299 C   0  0  0  0  0  0  0  0  0  0  0  0
    0.9101    2.9682   -0.3020 C   0  0  0  0  0  0  0  0  0  0  0  0
    0.2032    5.0149   -0.0874 H   0  0  0  0  0  0  0  0  0  0  0  0
   -0.9513    3.9005   -0.8756 H   0  0  0  0  0  0  0  0  0  0  0  0
   -0.1729    3.8798    2.0951 H   0  0  0  0  0  0  0  0  0  0  0  0
   -1.7263    4.4556    1.4232 H   0  0  0  0  0  0  0  0  0  0  0  0
   -2.2185    2.1699    0.5710 H   0  0  0  0  0  0  0  0  0  0  0  0
   -1.9163    2.1200    2.3323 H   0  0  0  0  0  0  0  0  0  0  0  0
   -0.7346    0.2532    1.1341 H   0  0  0  0  0  0  0  0  0  0  0  0
    0.4200    1.3676    1.9222 H   0  0  0  0  0  0  0  0  0  0  0  0
   -0.3584    1.3882   -1.0484 H   0  0  0  0  0  0  0  0  0  0  0  0
    1.1950    0.8124   -0.3765 H   0  0  0  0  0  0  0  0  0  0  0  0
    1.3850    3.1480   -1.2856 H   0  0  0  0  0  0  0  0  0  0  0  0
    1.6871    3.0981    0.4757 H   0  0  0  0  0  0  0  0  0  0  0  0
  1  2  1  0  0  0  0
  2  3  1  0  0  0  0
  2 10  1  0  0  0  0
  2  9  1  0  0  0  0
  3 12  1  0  0  0  0
  4 13  1  0  0  0  0
  4  3  1  0  0  0  0
  4 14  1  0  0  0  0
  5  4  1  0  0  0  0
  6  5  1  0  0  0  0
  6  1  1  0  0  0  0
  6 18  1  0  0  0  0
  7  1  1  0  0  0  0
  8  1  1  0  0  0  0
 11  3  1  0  0  0  0
 15  5  1  0  0  0  0
 16  5  1  0  0  0  0
 17  6  1  0  0  0  0
M  END
$$$$
