0 1 c1ccncn1
 OpenBabel07282316283D

 10 10  0  0  0  0  0  0  0  0999 V2000
    0.3485    3.4197    4.9201 C   0  0  0  0  0  0  0  0  0  0  0  0
   -0.1201    2.3834    4.1204 C   0  0  0  0  0  0  0  0  0  0  0  0
    0.6355    2.0606    2.9988 C   0  0  0  0  0  0  0  0  0  0  0  0
    1.7662    2.7105    2.6904 N   0  0  0  0  0  0  0  0  0  0  0  0
    2.1218    3.6902    3.5310 C   0  0  0  0  0  0  0  0  0  0  0  0
    1.4757    4.0860    4.6349 N   0  0  0  0  0  0  0  0  0  0  0  0
   -0.1913    3.7343    5.8230 H   0  0  0  0  0  0  0  0  0  0  0  0
   -1.0451    1.8442    4.3636 H   0  0  0  0  0  0  0  0  0  0  0  0
    0.3324    1.2547    2.3175 H   0  0  0  0  0  0  0  0  0  0  0  0
    3.0469    4.2294    3.2878 H   0  0  0  0  0  0  0  0  0  0  0  0
  1  7  1  0  0  0  0
  2  8  1  0  0  0  0
  2  1  1  0  0  0  0
  3  2  2  0  0  0  0
  4  3  1  0  0  0  0
  4  5  2  0  0  0  0
  5  6  1  0  0  0  0
  6  1  2  0  0  0  0
  9  3  1  0  0  0  0
 10  5  1  0  0  0  0
M  END
$$$$
