0 1 C1CCSSC1
 OpenBabel07282316283D

 14 14  0  0  0  0  0  0  0  0999 V2000
    3.7726    0.3848   -1.5917 C   0  0  0  0  0  0  0  0  0  0  0  0
    4.3022   -0.2806   -0.3165 C   0  0  0  0  0  0  0  0  0  0  0  0
    4.8842    0.6940    0.7049 C   0  0  0  0  0  0  0  0  0  0  0  0
    3.6337    1.8301    1.3641 S   0  0  0  0  0  0  0  0  0  0  0  0
    3.1673    2.8102   -0.3761 S   0  0  0  0  0  0  0  0  0  0  0  0
    2.6378    1.3791   -1.3561 C   0  0  0  0  0  0  0  0  0  0  0  0
    3.4062   -0.4060   -2.2741 H   0  0  0  0  0  0  0  0  0  0  0  0
    4.6013    0.9124   -2.1020 H   0  0  0  0  0  0  0  0  0  0  0  0
    3.4852   -0.8498    0.1672 H   0  0  0  0  0  0  0  0  0  0  0  0
    5.0931   -1.0016   -0.5993 H   0  0  0  0  0  0  0  0  0  0  0  0
    5.7126    1.2901    0.2762 H   0  0  0  0  0  0  0  0  0  0  0  0
    5.2804    0.1509    1.5844 H   0  0  0  0  0  0  0  0  0  0  0  0
    2.2767    1.7972   -2.3153 H   0  0  0  0  0  0  0  0  0  0  0  0
    1.7754    0.9038   -0.8502 H   0  0  0  0  0  0  0  0  0  0  0  0
  1  6  1  0  0  0  0
  1  2  1  0  0  0  0
  2  9  1  0  0  0  0
  2  3  1  0  0  0  0
  3  4  1  0  0  0  0
  3 12  1  0  0  0  0
  5  4  1  0  0  0  0
  6 14  1  0  0  0  0
  6  5  1  0  0  0  0
  7  1  1  0  0  0  0
  8  1  1  0  0  0  0
 10  2  1  0  0  0  0
 11  3  1  0  0  0  0
 13  6  1  0  0  0  0
M  END
$$$$
