0 1 C1CCCC1
 OpenBabel07282316283D

 15 15  0  0  0  0  0  0  0  0999 V2000
    2.3384    2.1791   -0.0251 C   0  0  0  0  0  0  0  0  0  0  0  0
    2.5546    0.6746   -0.2318 C   0  0  0  0  0  0  0  0  0  0  0  0
    1.5036    0.3259   -1.2861 C   0  0  0  0  0  0  0  0  0  0  0  0
    0.2615    1.0719   -0.7828 C   0  0  0  0  0  0  0  0  0  0  0  0
    0.8079    2.3856   -0.1661 C   0  0  0  0  0  0  0  0  0  0  0  0
    2.8673    2.7313   -0.8257 H   0  0  0  0  0  0  0  0  0  0  0  0
    2.7276    2.5400    0.9463 H   0  0  0  0  0  0  0  0  0  0  0  0
    3.5894    0.4226   -0.5339 H   0  0  0  0  0  0  0  0  0  0  0  0
    2.3336    0.1248    0.7033 H   0  0  0  0  0  0  0  0  0  0  0  0
    1.3372   -0.7618   -1.4066 H   0  0  0  0  0  0  0  0  0  0  0  0
    1.8196    0.7288   -2.2676 H   0  0  0  0  0  0  0  0  0  0  0  0
   -0.2291    0.4641    0.0017 H   0  0  0  0  0  0  0  0  0  0  0  0
   -0.4832    1.2555   -1.5811 H   0  0  0  0  0  0  0  0  0  0  0  0
    0.3398    2.5791    0.8183 H   0  0  0  0  0  0  0  0  0  0  0  0
    0.5895    3.2525   -0.8189 H   0  0  0  0  0  0  0  0  0  0  0  0
  1  7  1  0  0  0  0
  2  1  1  0  0  0  0
  2  9  1  0  0  0  0
  3  4  1  0  0  0  0
  3  2  1  0  0  0  0
  4  5  1  0  0  0  0
  4 12  1  0  0  0  0
  5  1  1  0  0  0  0
  5 14  1  0  0  0  0
  6  1  1  0  0  0  0
  8  2  1  0  0  0  0
 10  3  1  0  0  0  0
 11  3  1  0  0  0  0
 13  4  1  0  0  0  0
 15  5  1  0  0  0  0
M  END
$$$$
