0 1 C1CCCSC1
 OpenBabel07282316283D

 16 16  0  0  0  0  0  0  0  0999 V2000
    1.6576   -0.5672    2.7377 C   0  0  0  0  0  0  0  0  0  0  0  0
    2.4299    0.4490    3.5813 C   0  0  0  0  0  0  0  0  0  0  0  0
    1.7550    1.8214    3.6222 C   0  0  0  0  0  0  0  0  0  0  0  0
    0.3471    1.7536    4.2054 C   0  0  0  0  0  0  0  0  0  0  0  0
   -0.7634    0.7120    3.2224 S   0  0  0  0  0  0  0  0  0  0  0  0
    0.2433   -0.7944    3.2619 C   0  0  0  0  0  0  0  0  0  0  0  0
    2.1983   -1.5331    2.7378 H   0  0  0  0  0  0  0  0  0  0  0  0
    1.5995   -0.2141    1.6901 H   0  0  0  0  0  0  0  0  0  0  0  0
    2.5137    0.0627    4.6153 H   0  0  0  0  0  0  0  0  0  0  0  0
    3.4551    0.5566    3.1780 H   0  0  0  0  0  0  0  0  0  0  0  0
    1.6995    2.2399    2.5988 H   0  0  0  0  0  0  0  0  0  0  0  0
    2.3632    2.5132    4.2361 H   0  0  0  0  0  0  0  0  0  0  0  0
   -0.1254    2.7544    4.2321 H   0  0  0  0  0  0  0  0  0  0  0  0
    0.3764    1.3675    5.2425 H   0  0  0  0  0  0  0  0  0  0  0  0
   -0.3002   -1.5348    2.6438 H   0  0  0  0  0  0  0  0  0  0  0  0
    0.2726   -1.1790    4.2995 H   0  0  0  0  0  0  0  0  0  0  0  0
  1  7  1  0  0  0  0
  1  6  1  0  0  0  0
  1  2  1  0  0  0  0
  2  3  1  0  0  0  0
  2  9  1  0  0  0  0
  3  4  1  0  0  0  0
  3 12  1  0  0  0  0
  4 13  1  0  0  0  0
  4 14  1  0  0  0  0
  5  6  1  0  0  0  0
  5  4  1  0  0  0  0
  6 16  1  0  0  0  0
  8  1  1  0  0  0  0
 10  2  1  0  0  0  0
 11  3  1  0  0  0  0
 15  6  1  0  0  0  0
M  END
$$$$
