0 1 C1CCOCO1
 OpenBabel07282316283D

 14 14  0  0  0  0  0  0  0  0999 V2000
    0.1661    1.3876   -0.0231 C   0  0  0  0  0  0  0  0  0  0  0  0
    1.1321    1.8273   -1.1132 C   0  0  0  0  0  0  0  0  0  0  0  0
    2.3203    0.8772   -1.1231 C   0  0  0  0  0  0  0  0  0  0  0  0
    1.8707   -0.4737   -1.2330 O   0  0  0  0  0  0  0  0  0  0  0  0
    0.9934   -0.7716   -0.1790 C   0  0  0  0  0  0  0  0  0  0  0  0
   -0.1720    0.0102   -0.1900 O   0  0  0  0  0  0  0  0  0  0  0  0
   -0.7863    1.9513   -0.0485 H   0  0  0  0  0  0  0  0  0  0  0  0
    0.6187    1.5363    0.9761 H   0  0  0  0  0  0  0  0  0  0  0  0
    0.6229    1.7957   -2.0957 H   0  0  0  0  0  0  0  0  0  0  0  0
    1.4667    2.8683   -0.9409 H   0  0  0  0  0  0  0  0  0  0  0  0
    2.9140    0.9925   -0.1959 H   0  0  0  0  0  0  0  0  0  0  0  0
    2.9975    1.0549   -1.9806 H   0  0  0  0  0  0  0  0  0  0  0  0
    1.5153   -0.6584    0.7906 H   0  0  0  0  0  0  0  0  0  0  0  0
    0.6920   -1.8322   -0.2773 H   0  0  0  0  0  0  0  0  0  0  0  0
  1  8  1  0  0  0  0
  2 10  1  0  0  0  0
  2  1  1  0  0  0  0
  3  2  1  0  0  0  0
  3 11  1  0  0  0  0
  4  3  1  0  0  0  0
  4  5  1  0  0  0  0
  5 13  1  0  0  0  0
  6  5  1  0  0  0  0
  6  1  1  0  0  0  0
  7  1  1  0  0  0  0
  9  2  1  0  0  0  0
 12  3  1  0  0  0  0
 14  5  1  0  0  0  0
M  END
$$$$
