0 1 c1cccnc1
 OpenBabel07282316283D

 11 11  0  0  0  0  0  0  0  0999 V2000
    0.9416    4.0250    1.5608 C   0  0  0  0  0  0  0  0  0  0  0  0
    0.5265    3.6855    2.8457 C   0  0  0  0  0  0  0  0  0  0  0  0
    0.5651    2.3446    3.2187 C   0  0  0  0  0  0  0  0  0  0  0  0
    1.0156    1.4043    2.2932 C   0  0  0  0  0  0  0  0  0  0  0  0
    1.4187    1.7157    1.0518 N   0  0  0  0  0  0  0  0  0  0  0  0
    1.3758    3.0119    0.7072 C   0  0  0  0  0  0  0  0  0  0  0  0
    0.9311    5.0675    1.2162 H   0  0  0  0  0  0  0  0  0  0  0  0
    0.1778    4.4552    3.5468 H   0  0  0  0  0  0  0  0  0  0  0  0
    0.2490    2.0229    4.2198 H   0  0  0  0  0  0  0  0  0  0  0  0
    1.0573    0.3396    2.5583 H   0  0  0  0  0  0  0  0  0  0  0  0
    1.7091    3.2488   -0.3118 H   0  0  0  0  0  0  0  0  0  0  0  0
  1  2  1  0  0  0  0
  2  3  2  0  0  0  0
  2  8  1  0  0  0  0
  3  9  1  0  0  0  0
  4 10  1  0  0  0  0
  4  3  1  0  0  0  0
  5  4  2  0  0  0  0
  6  5  1  0  0  0  0
  6  1  2  0  0  0  0
  7  1  1  0  0  0  0
 11  6  1  0  0  0  0
M  END
$$$$
