0 1 CC#N
 OpenBabel07282316283D

  6  5  0  0  0  0  0  0  0  0999 V2000
    0.9900    2.6988    3.5704 C   0  0  0  0  0  0  0  0  0  0  0  0
    1.3519    1.8693    2.4272 C   0  0  0  0  0  0  0  0  0  0  0  0
    1.6424    1.2035    1.5098 N   0  0  0  0  0  0  0  0  0  0  0  0
    0.8269    2.0713    4.4628 H   0  0  0  0  0  0  0  0  0  0  0  0
    0.0631    3.2584    3.3597 H   0  0  0  0  0  0  0  0  0  0  0  0
    1.7945    3.4206    3.7901 H   0  0  0  0  0  0  0  0  0  0  0  0
  1  6  1  0  0  0  0
  1  4  1  0  0  0  0
  2  1  1  0  0  0  0
  3  2  3  0  0  0  0
  5  1  1  0  0  0  0
M  END
$$$$
