0 1 Cc1cMnHQc2c1cccc2
 OpenBabel07282316283D

 19 20  0  0  0  0  0  0  0  0999 V2000
    0.0000    0.0000    0.0000 C   0  0  0  0  0  0  0  0  0  0  0  0
   -1.0664    0.8225    0.7028 C   0  0  0  0  0  0  0  0  0  0  0  0
   -1.0111    1.3852    1.9935 C   0  0  0  0  0  0  0  0  0  0  0  0
   -2.2135    2.0247    2.2683 N   0  0  0  0  0  0  0  0  0  0  0  0
   -2.3917    2.2972    3.2381 H   0  0  0  0  0  0  0  0  0  0  0  0
   -3.0356    2.0851    1.1430 C   0  0  0  0  0  0  0  0  0  0  0  0
   -2.3409    1.3281    0.1276 C   0  0  0  0  0  0  0  0  0  0  0  0
   -2.9150    1.1954   -1.1912 C   0  0  0  0  0  0  0  0  0  0  0  0
   -4.1419    1.8893   -1.4958 C   0  0  0  0  0  0  0  0  0  0  0  0
   -4.7761    2.6455   -0.4821 C   0  0  0  0  0  0  0  0  0  0  0  0
   -4.2502    2.7240    0.8298 C   0  0  0  0  0  0  0  0  0  0  0  0
    0.7073   -0.3387    0.7756 H   0  0  0  0  0  0  0  0  0  0  0  0
    0.5598    0.5654   -0.7639 H   0  0  0  0  0  0  0  0  0  0  0  0
   -0.4494   -0.8868   -0.4777 H   0  0  0  0  0  0  0  0  0  0  0  0
   -0.2195    1.2313    2.7268 H   0  0  0  0  0  0  0  0  0  0  0  0
   -2.3718    0.7000   -2.0067 H   0  0  0  0  0  0  0  0  0  0  0  0
   -4.5724    1.9697   -2.5027 H   0  0  0  0  0  0  0  0  0  0  0  0
   -5.6504    3.2200   -0.8157 H   0  0  0  0  0  0  0  0  0  0  0  0
   -4.7036    3.3361    1.6205 H   0  0  0  0  0  0  0  0  0  0  0  0
  1  2  1  0  0  0  0
  1 12  1  0  0  0  0
  2  3  2  0  0  0  0
  3  4  1  0  0  0  0
  3 15  1  0  0  0  0
  4  5  1  0  0  0  0
  6  4  1  0  0  0  0
  7  2  1  0  0  0  0
  7  6  2  0  0  0  0
  8  7  1  0  0  0  0
  9  8  2  0  0  0  0
  9 10  1  0  0  0  0
 10 11  2  0  0  0  0
 11  6  1  0  0  0  0
 11 19  1  0  0  0  0
 13  1  1  0  0  0  0
 14  1  1  0  0  0  0
 16  8  1  0  0  0  0
 17  9  1  0  0  0  0
 18 10  1  0  0  0  0
M  END
$$$$
