0 1 Cc1cncMnHQ1
 OpenBabel07282316283D

 12 12  0  0  0  0  0  0  0  0999 V2000
   -0.1610    2.8645    0.4075 C   0  0  0  0  0  0  0  0  0  0  0  0
    0.3929    1.4924    0.5963 C   0  0  0  0  0  0  0  0  0  0  0  0
    1.4645    0.8325    0.0292 C   0  0  0  0  0  0  0  0  0  0  0  0
    1.5881   -0.4447    0.5252 N   0  0  0  0  0  0  0  0  0  0  0  0
    0.5980   -0.5705    1.3927 C   0  0  0  0  0  0  0  0  0  0  0  0
   -0.1460    0.5724    1.4665 N   0  0  0  0  0  0  0  0  0  0  0  0
   -0.9627    0.7198    2.0647 H   0  0  0  0  0  0  0  0  0  0  0  0
    0.4536    3.3922   -0.3411 H   0  0  0  0  0  0  0  0  0  0  0  0
   -0.1364    3.4373    1.3498 H   0  0  0  0  0  0  0  0  0  0  0  0
   -1.2021    2.8277    0.0452 H   0  0  0  0  0  0  0  0  0  0  0  0
    2.1557    1.2228   -0.7178 H   0  0  0  0  0  0  0  0  0  0  0  0
    0.3740   -1.4550    1.9890 H   0  0  0  0  0  0  0  0  0  0  0  0
  1  2  1  0  0  0  0
  1  9  1  0  0  0  0
  2  6  1  0  0  0  0
  3  4  1  0  0  0  0
  3  2  2  0  0  0  0
  4  5  2  0  0  0  0
  5  6  1  0  0  0  0
  5 12  1  0  0  0  0
  6  7  1  0  0  0  0
  8  1  1  0  0  0  0
 10  1  1  0  0  0  0
 11  3  1  0  0  0  0
M  END
$$$$
