0 1 CC=CLCRC
 OpenBabel07282316283D

 15 14  0  0  0  0  0  0  0  0999 V2000
    0.0984   -1.8553    0.7367 C   0  0  0  0  0  0  0  0  0  0  0  0
    0.0257   -0.3729    0.5004 C   0  0  0  0  0  0  0  0  0  0  0  0
    0.5270    0.6154    1.2599 C   0  0  0  0  0  0  0  0  0  0  0  0
    0.3532    2.0581    0.8590 C   0  0  0  0  0  0  0  0  0  0  0  0
    1.2886    0.4190    2.5447 C   0  0  0  0  0  0  0  0  0  0  0  0
    0.6437   -2.0975    1.6644 H   0  0  0  0  0  0  0  0  0  0  0  0
    0.6130   -2.3392   -0.1104 H   0  0  0  0  0  0  0  0  0  0  0  0
   -0.9219   -2.2677    0.8105 H   0  0  0  0  0  0  0  0  0  0  0  0
   -0.5071   -0.0706   -0.4108 H   0  0  0  0  0  0  0  0  0  0  0  0
   -0.1956    2.6050    1.6440 H   0  0  0  0  0  0  0  0  0  0  0  0
    1.3390    2.5337    0.7224 H   0  0  0  0  0  0  0  0  0  0  0  0
   -0.2104    2.1390   -0.0857 H   0  0  0  0  0  0  0  0  0  0  0  0
    0.7565    0.9307    3.3642 H   0  0  0  0  0  0  0  0  0  0  0  0
    1.4021   -0.6456    2.8096 H   0  0  0  0  0  0  0  0  0  0  0  0
    2.2921    0.8654    2.4439 H   0  0  0  0  0  0  0  0  0  0  0  0
  1  8  1  0  0  0  0
  1  6  1  0  0  0  0
  2  1  1  0  0  0  0
  2  3  2  0  0  0  0
  3  5  1  0  0  0  0
  4  3  1  0  0  0  0
  4 10  1  0  0  0  0
  5 14  1  0  0  0  0
  5 13  1  0  0  0  0
  7  1  1  0  0  0  0
  9  2  1  0  0  0  0
 11  4  1  0  0  0  0
 12  4  1  0  0  0  0
 15  5  1  0  0  0  0
M  END
$$$$
