0 1 CC=CC
 OpenBabel07282316283D

 12 11  0  0  0  0  0  0  0  0999 V2000
    5.0945    2.8238   -6.1592 C   0  0  0  0  0  0  0  0  0  0  0  0
    4.4849    3.0497   -4.7644 C   0  0  0  0  0  0  0  0  0  0  0  0
    5.1654    3.0716   -3.5876 C   0  0  0  0  0  0  0  0  0  0  0  0
    4.4826    3.2729   -2.2213 C   0  0  0  0  0  0  0  0  0  0  0  0
    4.7309    3.5872   -6.8676 H   0  0  0  0  0  0  0  0  0  0  0  0
    4.8265    1.8270   -6.5481 H   0  0  0  0  0  0  0  0  0  0  0  0
    6.1936    2.8944   -6.0995 H   0  0  0  0  0  0  0  0  0  0  0  0
    3.4076    3.2316   -4.6550 H   0  0  0  0  0  0  0  0  0  0  0  0
    6.2537    2.9268   -3.5706 H   0  0  0  0  0  0  0  0  0  0  0  0
    5.0439    3.9180   -1.5245 H   0  0  0  0  0  0  0  0  0  0  0  0
    4.2624    2.3174   -1.7163 H   0  0  0  0  0  0  0  0  0  0  0  0
    3.5286    3.7684   -2.4684 H   0  0  0  0  0  0  0  0  0  0  0  0
  1  7  1  0  0  0  0
  1  2  1  0  0  0  0
  2  8  1  0  0  0  0
  2  3  2  0  0  0  0
  3  9  1  0  0  0  0
  3  4  1  0  0  0  0
  4 11  1  0  0  0  0
  4 10  1  0  0  0  0
  5  1  1  0  0  0  0
  6  1  1  0  0  0  0
 12  4  1  0  0  0  0
M  END
$$$$
