0 1 CC=C
 OpenBabel07282316283D

  9  8  0  0  0  0  0  0  0  0999 V2000
    0.6218    2.2850    1.0852 C   0  0  0  0  0  0  0  0  0  0  0  0
    1.8885    2.0708    1.8584 C   0  0  0  0  0  0  0  0  0  0  0  0
    3.0592    2.6461    1.5706 C   0  0  0  0  0  0  0  0  0  0  0  0
    0.7959    2.9827    0.2488 H   0  0  0  0  0  0  0  0  0  0  0  0
   -0.1592    2.7078    1.7393 H   0  0  0  0  0  0  0  0  0  0  0  0
    0.2572    1.3281    0.6751 H   0  0  0  0  0  0  0  0  0  0  0  0
    1.8344    1.3908    2.7188 H   0  0  0  0  0  0  0  0  0  0  0  0
    3.9534    2.4510    2.1735 H   0  0  0  0  0  0  0  0  0  0  0  0
    3.1572    3.3312    0.7208 H   0  0  0  0  0  0  0  0  0  0  0  0
  1  5  1  0  0  0  0
  1  2  1  0  0  0  0
  2  7  1  0  0  0  0
  3  2  2  0  0  0  0
  3  8  1  0  0  0  0
  4  1  1  0  0  0  0
  6  1  1  0  0  0  0
  9  3  1  0  0  0  0
M  END
$$$$
