0 1 CC=O
 OpenBabel07282316283D

  7  6  0  0  0  0  0  0  0  0999 V2000
    2.3937   -0.6423    1.2932 C   0  0  0  0  0  0  0  0  0  0  0  0
    1.4362   -0.0908    0.2691 C   0  0  0  0  0  0  0  0  0  0  0  0
    1.1989   -0.6438   -0.7869 O   0  0  0  0  0  0  0  0  0  0  0  0
    3.3955   -0.7423    0.8426 H   0  0  0  0  0  0  0  0  0  0  0  0
    2.0516   -1.6403    1.6153 H   0  0  0  0  0  0  0  0  0  0  0  0
    2.4707    0.0068    2.1816 H   0  0  0  0  0  0  0  0  0  0  0  0
    0.9334    0.8751    0.5177 H   0  0  0  0  0  0  0  0  0  0  0  0
  1  5  1  0  0  0  0
  1  6  1  0  0  0  0
  2  7  1  0  0  0  0
  2  1  1  0  0  0  0
  3  2  2  0  0  0  0
  4  1  1  0  0  0  0
M  END
$$$$
