0 1 CCBr
 OpenBabel07282316283D

  8  7  0  0  0  0  0  0  0  0999 V2000
    0.0000    0.0000    0.0000 C   0  0  0  0  0  0  0  0  0  0  0  0
    1.4120   -0.3513    0.5097 C   0  0  0  0  0  0  0  0  0  0  0  0
    2.7478   -0.2110   -0.8768 Br  0  0  0  0  0  0  0  0  0  0  0  0
   -0.2175   -0.5229   -0.9465 H   0  0  0  0  0  0  0  0  0  0  0  0
   -0.0563    1.0871   -0.1777 H   0  0  0  0  0  0  0  0  0  0  0  0
   -0.7704   -0.2760    0.7395 H   0  0  0  0  0  0  0  0  0  0  0  0
    1.6551    0.2590    1.4007 H   0  0  0  0  0  0  0  0  0  0  0  0
    1.3831   -1.4118    0.8258 H   0  0  0  0  0  0  0  0  0  0  0  0
  1  2  1  0  0  0  0
  1  6  1  0  0  0  0
  2  8  1  0  0  0  0
  2  7  1  0  0  0  0
  3  2  1  0  0  0  0
  4  1  1  0  0  0  0
  5  1  1  0  0  0  0
M  END
$$$$
