0 1 CCC#C
 OpenBabel07282316283D

 10  9  0  0  0  0  0  0  0  0999 V2000
    0.0000    0.0000    0.0000 C   0  0  0  0  0  0  0  0  0  0  0  0
    0.4825   -1.4142    0.5119 C   0  0  0  0  0  0  0  0  0  0  0  0
    1.7119   -1.2625    1.2668 C   0  0  0  0  0  0  0  0  0  0  0  0
    2.8481   -1.1927    1.7327 C   0  0  0  0  0  0  0  0  0  0  0  0
   -0.5964    0.5449    0.7510 H   0  0  0  0  0  0  0  0  0  0  0  0
   -0.6274   -0.1707   -0.8910 H   0  0  0  0  0  0  0  0  0  0  0  0
    0.8593    0.6278   -0.2898 H   0  0  0  0  0  0  0  0  0  0  0  0
   -0.3545   -1.8494    1.0910 H   0  0  0  0  0  0  0  0  0  0  0  0
    0.7886   -2.1585   -0.2484 H   0  0  0  0  0  0  0  0  0  0  0  0
    3.7666   -0.9983    2.2606 H   0  0  0  0  0  0  0  0  0  0  0  0
  1  2  1  0  0  0  0
  1  5  1  0  0  0  0
  2  8  1  0  0  0  0
  2  3  1  0  0  0  0
  3  4  3  0  0  0  0
  4 10  1  0  0  0  0
  6  1  1  0  0  0  0
  7  1  1  0  0  0  0
  9  2  1  0  0  0  0
M  END
$$$$
