0 1 CCC
 OpenBabel07282316283D

 11 10  0  0  0  0  0  0  0  0999 V2000
    0.7269    3.4696    1.8211 C   0  0  0  0  0  0  0  0  0  0  0  0
    1.1901    2.4491    2.8602 C   0  0  0  0  0  0  0  0  0  0  0  0
    0.8156    2.8714    4.2804 C   0  0  0  0  0  0  0  0  0  0  0  0
   -0.3692    3.5841    1.8672 H   0  0  0  0  0  0  0  0  0  0  0  0
    1.0048    3.1500    0.8026 H   0  0  0  0  0  0  0  0  0  0  0  0
    1.1917    4.4496    2.0214 H   0  0  0  0  0  0  0  0  0  0  0  0
    0.7309    1.4667    2.6378 H   0  0  0  0  0  0  0  0  0  0  0  0
    2.2886    2.3304    2.7917 H   0  0  0  0  0  0  0  0  0  0  0  0
   -0.2790    2.9761    4.3667 H   0  0  0  0  0  0  0  0  0  0  0  0
    1.1568    2.1249    5.0172 H   0  0  0  0  0  0  0  0  0  0  0  0
    1.2819    3.8416    4.5209 H   0  0  0  0  0  0  0  0  0  0  0  0
  1  4  1  0  0  0  0
  1  6  1  0  0  0  0
  1  2  1  0  0  0  0
  2  3  1  0  0  0  0
  3  9  1  0  0  0  0
  3 11  1  0  0  0  0
  3 10  1  0  0  0  0
  5  1  1  0  0  0  0
  7  2  1  0  0  0  0
  8  2  1  0  0  0  0
M  END
$$$$
