0 1 CCCCC
 OpenBabel07282316283D

 17 16  0  0  0  0  0  0  0  0999 V2000
    4.7756    1.5348    0.3926 C   0  0  0  0  0  0  0  0  0  0  0  0
    4.2012    2.9454    0.5214 C   0  0  0  0  0  0  0  0  0  0  0  0
    3.3371    3.1123    1.7694 C   0  0  0  0  0  0  0  0  0  0  0  0
    2.7544    4.5164    1.9144 C   0  0  0  0  0  0  0  0  0  0  0  0
    1.8929    4.6650    3.1683 C   0  0  0  0  0  0  0  0  0  0  0  0
    5.4019    1.3001    1.2697 H   0  0  0  0  0  0  0  0  0  0  0  0
    3.9576    0.7970    0.3370 H   0  0  0  0  0  0  0  0  0  0  0  0
    5.3942    1.4433   -0.5160 H   0  0  0  0  0  0  0  0  0  0  0  0
    5.0299    3.6784    0.5596 H   0  0  0  0  0  0  0  0  0  0  0  0
    3.5885    3.1763   -0.3712 H   0  0  0  0  0  0  0  0  0  0  0  0
    2.5071    2.3808    1.7324 H   0  0  0  0  0  0  0  0  0  0  0  0
    3.9485    2.8828    2.6632 H   0  0  0  0  0  0  0  0  0  0  0  0
    3.5856    5.2466    1.9502 H   0  0  0  0  0  0  0  0  0  0  0  0
    2.1443    4.7445    1.0194 H   0  0  0  0  0  0  0  0  0  0  0  0
    1.0513    3.9528    3.1354 H   0  0  0  0  0  0  0  0  0  0  0  0
    2.4957    4.4559    4.0681 H   0  0  0  0  0  0  0  0  0  0  0  0
    1.4860    5.6871    3.2472 H   0  0  0  0  0  0  0  0  0  0  0  0
  1  2  1  0  0  0  0
  1  6  1  0  0  0  0
  2  9  1  0  0  0  0
  2  3  1  0  0  0  0
  3  4  1  0  0  0  0
  3 12  1  0  0  0  0
  4 13  1  0  0  0  0
  4  5  1  0  0  0  0
  5 17  1  0  0  0  0
  5 16  1  0  0  0  0
  7  1  1  0  0  0  0
  8  1  1  0  0  0  0
 10  2  1  0  0  0  0
 11  3  1  0  0  0  0
 14  4  1  0  0  0  0
 15  5  1  0  0  0  0
M  END
$$$$
