0 1 CCCCF
 OpenBabel07282316283D

 14 13  0  0  0  0  0  0  0  0999 V2000
    0.0000    0.0000    0.0000 C   0  0  0  0  0  0  0  0  0  0  0  0
    0.7204    1.0402    0.9655 C   0  0  0  0  0  0  0  0  0  0  0  0
    0.5148    0.8349    2.4654 C   0  0  0  0  0  0  0  0  0  0  0  0
    1.1832    1.9341    3.2443 C   0  0  0  0  0  0  0  0  0  0  0  0
    1.3334    1.6548    4.5588 F   0  0  0  0  0  0  0  0  0  0  0  0
    0.1786    0.4985   -0.9676 H   0  0  0  0  0  0  0  0  0  0  0  0
   -1.0751   -0.2320    0.0831 H   0  0  0  0  0  0  0  0  0  0  0  0
    0.5665   -0.9462    0.0181 H   0  0  0  0  0  0  0  0  0  0  0  0
    0.2824    2.0286    0.7272 H   0  0  0  0  0  0  0  0  0  0  0  0
    1.8176    1.1199    0.8424 H   0  0  0  0  0  0  0  0  0  0  0  0
   -0.5755    0.8714    2.6538 H   0  0  0  0  0  0  0  0  0  0  0  0
    0.8787   -0.1599    2.7870 H   0  0  0  0  0  0  0  0  0  0  0  0
    0.7828    2.9641    3.1786 H   0  0  0  0  0  0  0  0  0  0  0  0
    2.2239    1.9529    2.8673 H   0  0  0  0  0  0  0  0  0  0  0  0
  1  8  1  0  0  0  0
  1  7  1  0  0  0  0
  1  2  1  0  0  0  0
  2  3  1  0  0  0  0
  3 11  1  0  0  0  0
  3 12  1  0  0  0  0
  3  4  1  0  0  0  0
  4  5  1  0  0  0  0
  6  1  1  0  0  0  0
  9  2  1  0  0  0  0
 10  2  1  0  0  0  0
 13  4  1  0  0  0  0
 14  4  1  0  0  0  0
M  END
$$$$
