0 1 CCCF
 OpenBabel07282316283D

 11 10  0  0  0  0  0  0  0  0999 V2000
    0.0000    0.0000    0.0000 C   0  0  0  0  0  0  0  0  0  0  0  0
   -0.0882   -1.5565    0.0396 C   0  0  0  0  0  0  0  0  0  0  0  0
   -0.9568   -2.0713    1.2442 C   0  0  0  0  0  0  0  0  0  0  0  0
   -0.3864   -1.7238    2.4241 F   0  0  0  0  0  0  0  0  0  0  0  0
   -0.9758    0.4215    0.2947 H   0  0  0  0  0  0  0  0  0  0  0  0
    0.2826    0.4190   -0.9804 H   0  0  0  0  0  0  0  0  0  0  0  0
    0.7546    0.3059    0.7441 H   0  0  0  0  0  0  0  0  0  0  0  0
   -0.6349   -1.9596   -0.8345 H   0  0  0  0  0  0  0  0  0  0  0  0
    0.8813   -2.0870    0.1040 H   0  0  0  0  0  0  0  0  0  0  0  0
   -1.0607   -3.1728    1.2807 H   0  0  0  0  0  0  0  0  0  0  0  0
   -1.9741   -1.6393    1.1816 H   0  0  0  0  0  0  0  0  0  0  0  0
  1  2  1  0  0  0  0
  1  5  1  0  0  0  0
  1  7  1  0  0  0  0
  2  9  1  0  0  0  0
  2  3  1  0  0  0  0
  3 10  1  0  0  0  0
  3  4  1  0  0  0  0
  6  1  1  0  0  0  0
  8  2  1  0  0  0  0
 11  3  1  0  0  0  0
M  END
$$$$
