0 1 CCCLFRF
 OpenBabel07282316283D

 11 10  0  0  0  0  0  0  0  0999 V2000
    0.0000    0.0000    0.0000 C   0  0  0  0  0  0  0  0  0  0  0  0
   -0.9796    1.0562   -0.5167 C   0  0  0  0  0  0  0  0  0  0  0  0
   -2.4203    0.5797   -0.4812 C   0  0  0  0  0  0  0  0  0  0  0  0
   -3.0624    1.7309   -0.8944 F   0  0  0  0  0  0  0  0  0  0  0  0
   -2.6930   -0.4067   -1.4063 F   0  0  0  0  0  0  0  0  0  0  0  0
    0.1630   -0.8929   -0.6268 H   0  0  0  0  0  0  0  0  0  0  0  0
   -0.3058   -0.3285    1.0076 H   0  0  0  0  0  0  0  0  0  0  0  0
    0.9525    0.5500    0.0833 H   0  0  0  0  0  0  0  0  0  0  0  0
   -0.7997    1.9637    0.0911 H   0  0  0  0  0  0  0  0  0  0  0  0
   -0.7393    1.3026   -1.5688 H   0  0  0  0  0  0  0  0  0  0  0  0
   -2.9290    0.2567    0.4498 H   0  0  0  0  0  0  0  0  0  0  0  0
  1  8  1  0  0  0  0
  1  7  1  0  0  0  0
  2  3  1  0  0  0  0
  2  1  1  0  0  0  0
  2  9  1  0  0  0  0
  3 11  1  0  0  0  0
  4  3  1  0  0  0  0
  5  3  1  0  0  0  0
  6  1  1  0  0  0  0
 10  2  1  0  0  0  0
M  END
$$$$
