0 1 CCCl
 OpenBabel07282316283D

  8  7  0  0  0  0  0  0  0  0999 V2000
    1.6396    0.1841    0.0149 C   0  0  0  0  0  0  0  0  0  0  0  0
    1.1050    0.8935    1.2398 C   0  0  0  0  0  0  0  0  0  0  0  0
   -0.6427    0.5765    1.4590 Cl  0  0  0  0  0  0  0  0  0  0  0  0
    2.7163    0.3968   -0.0951 H   0  0  0  0  0  0  0  0  0  0  0  0
    1.1183    0.5289   -0.8939 H   0  0  0  0  0  0  0  0  0  0  0  0
    1.5040   -0.9068    0.1058 H   0  0  0  0  0  0  0  0  0  0  0  0
    1.6072    0.5594    2.1681 H   0  0  0  0  0  0  0  0  0  0  0  0
    1.2223    1.9921    1.1704 H   0  0  0  0  0  0  0  0  0  0  0  0
  1  6  1  0  0  0  0
  1  2  1  0  0  0  0
  2  3  1  0  0  0  0
  2  7  1  0  0  0  0
  4  1  1  0  0  0  0
  5  1  1  0  0  0  0
  8  2  1  0  0  0  0
M  END
$$$$
