0 1 CCCLCRC
 OpenBabel07282316283D

 17 16  0  0  0  0  0  0  0  0999 V2000
    5.8470    7.5627    3.1465 C   0  0  0  0  0  0  0  0  0  0  0  0
    5.6158    6.2330    3.9465 C   0  0  0  0  0  0  0  0  0  0  0  0
    4.3729    5.4064    3.4933 C   0  0  0  0  0  0  0  0  0  0  0  0
    3.0264    6.1626    3.5285 C   0  0  0  0  0  0  0  0  0  0  0  0
    4.6971    4.8780    2.0767 C   0  0  0  0  0  0  0  0  0  0  0  0
    4.9518    8.1960    3.0281 H   0  0  0  0  0  0  0  0  0  0  0  0
    6.2873    7.3863    2.1507 H   0  0  0  0  0  0  0  0  0  0  0  0
    6.5820    8.1046    3.7652 H   0  0  0  0  0  0  0  0  0  0  0  0
    6.4314    5.5187    3.7230 H   0  0  0  0  0  0  0  0  0  0  0  0
    5.5759    6.3654    5.0448 H   0  0  0  0  0  0  0  0  0  0  0  0
    4.2815    4.5842    4.2319 H   0  0  0  0  0  0  0  0  0  0  0  0
    2.2572    5.4025    3.3112 H   0  0  0  0  0  0  0  0  0  0  0  0
    2.9365    6.9757    2.7888 H   0  0  0  0  0  0  0  0  0  0  0  0
    2.8369    6.5778    4.5326 H   0  0  0  0  0  0  0  0  0  0  0  0
    4.8400    5.7137    1.3711 H   0  0  0  0  0  0  0  0  0  0  0  0
    3.8562    4.2584    1.7225 H   0  0  0  0  0  0  0  0  0  0  0  0
    5.6113    4.2610    2.0812 H   0  0  0  0  0  0  0  0  0  0  0  0
  1  8  1  0  0  0  0
  1  2  1  0  0  0  0
  2 10  1  0  0  0  0
  3  4  1  0  0  0  0
  3  2  1  0  0  0  0
  3 11  1  0  0  0  0
  4 14  1  0  0  0  0
  5 17  1  0  0  0  0
  5  3  1  0  0  0  0
  6  1  1  0  0  0  0
  7  1  1  0  0  0  0
  9  2  1  0  0  0  0
 12  4  1  0  0  0  0
 13  4  1  0  0  0  0
 15  5  1  0  0  0  0
 16  5  1  0  0  0  0
M  END
$$$$
