0 1 CCCL=ORNC
 OpenBabel07282316283D

 15 14  0  0  0  0  0  0  0  0999 V2000
    0.0000    0.0000    0.0000 C   0  0  0  0  0  0  0  0  0  0  0  0
   -0.8828    0.8883   -0.8626 C   0  0  0  0  0  0  0  0  0  0  0  0
   -0.2125    2.0378   -1.5630 C   0  0  0  0  0  0  0  0  0  0  0  0
    1.0103    2.0183   -1.6785 O   0  0  0  0  0  0  0  0  0  0  0  0
   -1.0626    2.9407   -2.1025 N   0  0  0  0  0  0  0  0  0  0  0  0
   -0.6713    4.2517   -2.5231 C   0  0  0  0  0  0  0  0  0  0  0  0
   -0.5239   -0.8061    0.5407 H   0  0  0  0  0  0  0  0  0  0  0  0
    0.6374    0.5469    0.7150 H   0  0  0  0  0  0  0  0  0  0  0  0
    0.6454   -0.4547   -0.7702 H   0  0  0  0  0  0  0  0  0  0  0  0
   -1.4100    0.3455   -1.6705 H   0  0  0  0  0  0  0  0  0  0  0  0
   -1.6488    1.2923   -0.1730 H   0  0  0  0  0  0  0  0  0  0  0  0
   -2.0747    2.8038   -2.0428 H   0  0  0  0  0  0  0  0  0  0  0  0
    0.3641    4.3096   -2.8990 H   0  0  0  0  0  0  0  0  0  0  0  0
   -0.7749    4.9427   -1.6696 H   0  0  0  0  0  0  0  0  0  0  0  0
   -1.3553    4.5776   -3.3246 H   0  0  0  0  0  0  0  0  0  0  0  0
  1  7  1  0  0  0  0
  1  8  1  0  0  0  0
  2 11  1  0  0  0  0
  2  1  1  0  0  0  0
  3  2  1  0  0  0  0
  4  3  2  0  0  0  0
  5 12  1  0  0  0  0
  5  3  1  0  0  0  0
  6  5  1  0  0  0  0
  6 14  1  0  0  0  0
  9  1  1  0  0  0  0
 10  2  1  0  0  0  0
 13  6  1  0  0  0  0
 15  6  1  0  0  0  0
M  END
$$$$
