0 1 CCCL=CLCRCRC
 OpenBabel07282316283D

 21 20  0  0  0  0  0  0  0  0999 V2000
    0.0000    0.0000    0.0000 C   0  0  0  0  0  0  0  0  0  0  0  0
   -0.0202   -1.3994   -0.6877 C   0  0  0  0  0  0  0  0  0  0  0  0
   -1.0513   -2.3620   -0.1099 C   0  0  0  0  0  0  0  0  0  0  0  0
   -0.9051   -3.1873    1.0014 C   0  0  0  0  0  0  0  0  0  0  0  0
   -1.9042   -4.1749    1.5728 C   0  0  0  0  0  0  0  0  0  0  0  0
    0.3283   -3.1616    1.8633 C   0  0  0  0  0  0  0  0  0  0  0  0
   -2.4635   -2.2479   -0.7426 C   0  0  0  0  0  0  0  0  0  0  0  0
    0.5801    0.6486   -0.6778 H   0  0  0  0  0  0  0  0  0  0  0  0
    0.5062   -0.0273    0.9796 H   0  0  0  0  0  0  0  0  0  0  0  0
   -1.0029    0.4390    0.1343 H   0  0  0  0  0  0  0  0  0  0  0  0
   -0.2867   -1.3030   -1.7578 H   0  0  0  0  0  0  0  0  0  0  0  0
    0.9676   -1.8957   -0.6302 H   0  0  0  0  0  0  0  0  0  0  0  0
   -2.3397   -3.6903    2.4628 H   0  0  0  0  0  0  0  0  0  0  0  0
   -1.4381   -5.1254    1.8824 H   0  0  0  0  0  0  0  0  0  0  0  0
   -2.7163   -4.3970    0.8602 H   0  0  0  0  0  0  0  0  0  0  0  0
    0.2141   -3.3039    2.9511 H   0  0  0  0  0  0  0  0  0  0  0  0
    0.8816   -2.2238    1.6874 H   0  0  0  0  0  0  0  0  0  0  0  0
    0.9198   -4.0002    1.4590 H   0  0  0  0  0  0  0  0  0  0  0  0
   -2.2396   -2.2961   -1.8215 H   0  0  0  0  0  0  0  0  0  0  0  0
   -2.9074   -1.2632   -0.5190 H   0  0  0  0  0  0  0  0  0  0  0  0
   -3.2030   -3.0301   -0.5015 H   0  0  0  0  0  0  0  0  0  0  0  0
  1 10  1  0  0  0  0
  1  9  1  0  0  0  0
  2 12  1  0  0  0  0
  2  3  1  0  0  0  0
  2  1  1  0  0  0  0
  3  4  2  0  0  0  0
  4  5  1  0  0  0  0
  4  6  1  0  0  0  0
  5 14  1  0  0  0  0
  5 13  1  0  0  0  0
  6 16  1  0  0  0  0
  7 20  1  0  0  0  0
  7 21  1  0  0  0  0
  7  3  1  0  0  0  0
  8  1  1  0  0  0  0
 11  2  1  0  0  0  0
 15  5  1  0  0  0  0
 17  6  1  0  0  0  0
 18  6  1  0  0  0  0
 19  7  1  0  0  0  0
M  END
$$$$
