0 1 CCCLClRLClRCl
 OpenBabel07282316283D

 11 10  0  0  0  0  0  0  0  0999 V2000
    0.0000    0.0000    0.0000 C   0  0  0  0  0  0  0  0  0  0  0  0
   -0.1967   -1.1846    1.0108 C   0  0  0  0  0  0  0  0  0  0  0  0
    0.1616   -2.5625    0.4701 C   0  0  0  0  0  0  0  0  0  0  0  0
    0.2166   -3.7804    1.7917 Cl  0  0  0  0  0  0  0  0  0  0  0  0
   -0.9256   -3.2102   -0.8180 Cl  0  0  0  0  0  0  0  0  0  0  0  0
    1.7602   -2.3721   -0.1875 Cl  0  0  0  0  0  0  0  0  0  0  0  0
   -0.7525   -0.0266   -0.8060 H   0  0  0  0  0  0  0  0  0  0  0  0
    1.0043   -0.0084   -0.4560 H   0  0  0  0  0  0  0  0  0  0  0  0
   -0.1222    0.9396    0.5646 H   0  0  0  0  0  0  0  0  0  0  0  0
    0.5313   -1.0380    1.8317 H   0  0  0  0  0  0  0  0  0  0  0  0
   -1.2099   -1.1922    1.4568 H   0  0  0  0  0  0  0  0  0  0  0  0
  1  9  1  0  0  0  0
  1  2  1  0  0  0  0
  2 11  1  0  0  0  0
  2 10  1  0  0  0  0
  3  2  1  0  0  0  0
  3  4  1  0  0  0  0
  5  3  1  0  0  0  0
  6  3  1  0  0  0  0
  7  1  1  0  0  0  0
  8  1  1  0  0  0  0
M  END
$$$$
