0 1 CCCL=ORNLCCRC
 OpenBabel07282316283D

 21 20  0  0  0  0  0  0  0  0999 V2000
    0.0000    0.0000    0.0000 C   0  0  0  0  0  0  0  0  0  0  0  0
    1.3470    0.2443   -0.7385 C   0  0  0  0  0  0  0  0  0  0  0  0
    1.5943   -0.6894   -1.8842 C   0  0  0  0  0  0  0  0  0  0  0  0
    0.8724   -1.7126   -2.0603 O   0  0  0  0  0  0  0  0  0  0  0  0
    2.5231   -0.3458   -2.7942 N   0  0  0  0  0  0  0  0  0  0  0  0
    3.3790    0.8631   -2.7239 C   0  0  0  0  0  0  0  0  0  0  0  0
    2.8470    2.0417   -3.6590 C   0  0  0  0  0  0  0  0  0  0  0  0
    2.8012   -1.1185   -3.9989 C   0  0  0  0  0  0  0  0  0  0  0  0
   -0.8634    0.4009   -0.5572 H   0  0  0  0  0  0  0  0  0  0  0  0
    0.0137    0.4569    1.0038 H   0  0  0  0  0  0  0  0  0  0  0  0
   -0.1284   -1.0898    0.1112 H   0  0  0  0  0  0  0  0  0  0  0  0
    2.2216    0.1622   -0.0649 H   0  0  0  0  0  0  0  0  0  0  0  0
    1.3667    1.2530   -1.1942 H   0  0  0  0  0  0  0  0  0  0  0  0
    3.5580    1.3490   -1.7454 H   0  0  0  0  0  0  0  0  0  0  0  0
    4.3517    0.4885   -3.0966 H   0  0  0  0  0  0  0  0  0  0  0  0
    1.8791    2.3671   -3.2418 H   0  0  0  0  0  0  0  0  0  0  0  0
    2.6974    1.7569   -4.7140 H   0  0  0  0  0  0  0  0  0  0  0  0
    3.5501    2.8907   -3.6201 H   0  0  0  0  0  0  0  0  0  0  0  0
    3.9008   -1.2046   -4.0076 H   0  0  0  0  0  0  0  0  0  0  0  0
    2.4782   -0.6420   -4.9398 H   0  0  0  0  0  0  0  0  0  0  0  0
    2.3693   -2.1323   -3.9516 H   0  0  0  0  0  0  0  0  0  0  0  0
  1 11  1  0  0  0  0
  1 10  1  0  0  0  0
  2 12  1  0  0  0  0
  2  1  1  0  0  0  0
  3  2  1  0  0  0  0
  4  3  2  0  0  0  0
  5  6  1  0  0  0  0
  5  3  1  0  0  0  0
  6 14  1  0  0  0  0
  7 18  1  0  0  0  0
  7 16  1  0  0  0  0
  7  6  1  0  0  0  0
  8 21  1  0  0  0  0
  8  5  1  0  0  0  0
  9  1  1  0  0  0  0
 13  2  1  0  0  0  0
 15  6  1  0  0  0  0
 17  7  1  0  0  0  0
 19  8  1  0  0  0  0
 20  8  1  0  0  0  0
M  END
$$$$
