0 1 CCCLORC
 OpenBabel07282316283D

 15 14  0  0  1  0  0  0  0  0999 V2000
    3.0780    6.4425   -3.1350 C   0  0  0  0  0  0  0  0  0  0  0  0
    2.0320    7.1952   -2.1915 C   0  0  0  0  0  0  0  0  0  0  0  0
    1.0701    6.1423   -1.5220 C   0  0  1  0  0  0  0  0  0  0  0  0
    0.3887    6.7375   -0.4406 O   0  0  0  0  0  0  0  0  0  0  0  0
    0.0374    5.4935   -2.5669 C   0  0  0  0  0  0  0  0  0  0  0  0
    3.4168    5.5062   -2.6605 H   0  0  0  0  0  0  0  0  0  0  0  0
    3.9581    7.0802   -3.3230 H   0  0  0  0  0  0  0  0  0  0  0  0
    2.6085    6.1967   -4.1024 H   0  0  0  0  0  0  0  0  0  0  0  0
    2.5695    7.7080   -1.3708 H   0  0  0  0  0  0  0  0  0  0  0  0
    1.4984    7.9673   -2.7785 H   0  0  0  0  0  0  0  0  0  0  0  0
    1.6227    5.3119   -1.0373 H   0  0  0  0  0  0  0  0  0  0  0  0
    0.5894    6.1979    0.3525 H   0  0  0  0  0  0  0  0  0  0  0  0
   -0.6099    4.7505   -2.0714 H   0  0  0  0  0  0  0  0  0  0  0  0
    0.5560    5.0032   -3.4080 H   0  0  0  0  0  0  0  0  0  0  0  0
   -0.5976    6.3014   -2.9680 H   0  0  0  0  0  0  0  0  0  0  0  0
  1  6  1  0  0  0  0
  1  2  1  0  0  0  0
  2  3  1  0  0  0  0
  2  9  1  0  0  0  0
  3 11  1  1  0  0  0
  3  4  1  0  0  0  0
  4 12  1  0  0  0  0
  5 13  1  0  0  0  0
  5  3  1  0  0  0  0
  7  1  1  0  0  0  0
  8  1  1  0  0  0  0
 10  2  1  0  0  0  0
 14  5  1  0  0  0  0
 15  5  1  0  0  0  0
M  END
$$$$
