0 1 CCCNC
 OpenBabel07282316283D

 16 15  0  0  0  0  0  0  0  0999 V2000
    0.0000    0.0000    0.0000 C   0  0  0  0  0  0  0  0  0  0  0  0
    1.0119   -1.0457    0.4512 C   0  0  0  0  0  0  0  0  0  0  0  0
    1.9921   -1.5281   -0.6049 C   0  0  0  0  0  0  0  0  0  0  0  0
    1.4238   -2.1571   -1.7786 N   0  0  0  0  0  0  0  0  0  0  0  0
    0.6782   -3.3613   -1.5505 C   0  0  0  0  0  0  0  0  0  0  0  0
   -0.5273   -0.2355   -0.9397 H   0  0  0  0  0  0  0  0  0  0  0  0
    0.6743    0.8542   -0.1795 H   0  0  0  0  0  0  0  0  0  0  0  0
   -0.7458    0.2936    0.7578 H   0  0  0  0  0  0  0  0  0  0  0  0
    1.6334   -0.5911    1.2465 H   0  0  0  0  0  0  0  0  0  0  0  0
    0.4767   -1.9078    0.8939 H   0  0  0  0  0  0  0  0  0  0  0  0
    2.6529   -0.7208   -0.9750 H   0  0  0  0  0  0  0  0  0  0  0  0
    2.6179   -2.2396   -0.0325 H   0  0  0  0  0  0  0  0  0  0  0  0
    0.8222   -1.5359   -2.3345 H   0  0  0  0  0  0  0  0  0  0  0  0
    0.3606   -3.8559   -2.4839 H   0  0  0  0  0  0  0  0  0  0  0  0
   -0.2172   -3.1511   -0.9416 H   0  0  0  0  0  0  0  0  0  0  0  0
    1.3303   -4.0524   -0.9904 H   0  0  0  0  0  0  0  0  0  0  0  0
  1  2  1  0  0  0  0
  1  8  1  0  0  0  0
  2 10  1  0  0  0  0
  2  9  1  0  0  0  0
  3 12  1  0  0  0  0
  3  2  1  0  0  0  0
  4  5  1  0  0  0  0
  4  3  1  0  0  0  0
  5 16  1  0  0  0  0
  5 15  1  0  0  0  0
  6  1  1  0  0  0  0
  7  1  1  0  0  0  0
 11  3  1  0  0  0  0
 13  4  1  0  0  0  0
 14  5  1  0  0  0  0
M  END
$$$$
