0 1 CCCOC
 OpenBabel07282316283D

 15 14  0  0  0  0  0  0  0  0999 V2000
    3.4731    0.5672    1.0430 C   0  0  0  0  0  0  0  0  0  0  0  0
    2.7048   -0.0823    2.1915 C   0  0  0  0  0  0  0  0  0  0  0  0
    2.6628    0.7913    3.4303 C   0  0  0  0  0  0  0  0  0  0  0  0
    1.9599    1.9858    3.1234 O   0  0  0  0  0  0  0  0  0  0  0  0
    1.9055    2.8488    4.2388 C   0  0  0  0  0  0  0  0  0  0  0  0
    2.9997    1.5232    0.7629 H   0  0  0  0  0  0  0  0  0  0  0  0
    3.4832   -0.0926    0.1591 H   0  0  0  0  0  0  0  0  0  0  0  0
    4.5150    0.7659    1.3456 H   0  0  0  0  0  0  0  0  0  0  0  0
    1.6639   -0.2960    1.8813 H   0  0  0  0  0  0  0  0  0  0  0  0
    3.1771   -1.0438    2.4704 H   0  0  0  0  0  0  0  0  0  0  0  0
    2.1581    0.2667    4.2642 H   0  0  0  0  0  0  0  0  0  0  0  0
    3.6896    1.0396    3.7612 H   0  0  0  0  0  0  0  0  0  0  0  0
    1.3844    2.3795    5.0902 H   0  0  0  0  0  0  0  0  0  0  0  0
    2.9141    3.1512    4.5670 H   0  0  0  0  0  0  0  0  0  0  0  0
    1.3475    3.7518    3.9393 H   0  0  0  0  0  0  0  0  0  0  0  0
  1  8  1  0  0  0  0
  1  2  1  0  0  0  0
  2 10  1  0  0  0  0
  2  3  1  0  0  0  0
  3 12  1  0  0  0  0
  3 11  1  0  0  0  0
  4  3  1  0  0  0  0
  4  5  1  0  0  0  0
  5 14  1  0  0  0  0
  5 13  1  0  0  0  0
  6  1  1  0  0  0  0
  7  1  1  0  0  0  0
  9  2  1  0  0  0  0
 15  5  1  0  0  0  0
M  END
$$$$
