0 1 CCCSS
 OpenBabel07282316283D

 13 12  0  0  0  0  0  0  0  0999 V2000
    1.4861   -1.0561    4.7232 C   0  0  0  0  0  0  0  0  0  0  0  0
    1.0719    0.1908    5.3914 C   0  0  0  0  0  0  0  0  0  0  0  0
    2.2236    1.2723    5.3965 C   0  0  0  0  0  0  0  0  0  0  0  0
    2.4463    1.7835    3.6731 S   0  0  0  0  0  0  0  0  0  0  0  0
    0.7026    2.9273    3.2147 S   0  0  0  0  0  0  0  0  0  0  0  0
    1.5121   -1.0617    3.6205 H   0  0  0  0  0  0  0  0  0  0  0  0
    0.7963   -1.8469    5.0629 H   0  0  0  0  0  0  0  0  0  0  0  0
    2.4970   -1.2853    5.1001 H   0  0  0  0  0  0  0  0  0  0  0  0
    0.1788    0.5213    4.8270 H   0  0  0  0  0  0  0  0  0  0  0  0
    0.7488   -0.0483    6.4229 H   0  0  0  0  0  0  0  0  0  0  0  0
    1.8340    2.1174    5.9961 H   0  0  0  0  0  0  0  0  0  0  0  0
    3.1596    0.9240    5.8741 H   0  0  0  0  0  0  0  0  0  0  0  0
   -0.0876    1.8752    2.9128 H   0  0  0  0  0  0  0  0  0  0  0  0
  1  7  1  0  0  0  0
  1  8  1  0  0  0  0
  1  2  1  0  0  0  0
  2  3  1  0  0  0  0
  2 10  1  0  0  0  0
  3 12  1  0  0  0  0
  3 11  1  0  0  0  0
  4  3  1  0  0  0  0
  5  4  1  0  0  0  0
  6  1  1  0  0  0  0
  9  2  1  0  0  0  0
 13  5  1  0  0  0  0
M  END
$$$$
