0 1 CCCSCSC
 OpenBabel07282316283D

 19 18  0  0  0  0  0  0  0  0999 V2000
    0.0000    0.0000    0.0000 C   0  0  0  0  0  0  0  0  0  0  0  0
   -1.0651    0.6212   -0.8017 C   0  0  0  0  0  0  0  0  0  0  0  0
   -2.1450   -0.4355   -1.0684 C   0  0  0  0  0  0  0  0  0  0  0  0
   -3.2151   -0.6271    0.3729 S   0  0  0  0  0  0  0  0  0  0  0  0
   -3.6870   -2.3985    0.2267 C   0  0  0  0  0  0  0  0  0  0  0  0
   -5.0605   -2.9021    1.3575 S   0  0  0  0  0  0  0  0  0  0  0  0
   -6.3792   -1.9780    0.4825 C   0  0  0  0  0  0  0  0  0  0  0  0
   -0.3518   -0.5493    0.8895 H   0  0  0  0  0  0  0  0  0  0  0  0
    0.6480    0.8286    0.3317 H   0  0  0  0  0  0  0  0  0  0  0  0
    0.5976   -0.6860   -0.6236 H   0  0  0  0  0  0  0  0  0  0  0  0
   -1.5847    1.4298   -0.2526 H   0  0  0  0  0  0  0  0  0  0  0  0
   -0.6509    1.0576   -1.7309 H   0  0  0  0  0  0  0  0  0  0  0  0
   -2.6340   -0.1985   -2.0328 H   0  0  0  0  0  0  0  0  0  0  0  0
   -1.6347   -1.4115   -1.1806 H   0  0  0  0  0  0  0  0  0  0  0  0
   -3.8950   -2.7193   -0.8122 H   0  0  0  0  0  0  0  0  0  0  0  0
   -2.7553   -2.8992    0.5534 H   0  0  0  0  0  0  0  0  0  0  0  0
   -6.2808   -0.9002    0.6955 H   0  0  0  0  0  0  0  0  0  0  0  0
   -7.3749   -2.3134    0.8184 H   0  0  0  0  0  0  0  0  0  0  0  0
   -6.3062   -2.1293   -0.6076 H   0  0  0  0  0  0  0  0  0  0  0  0
  1  9  1  0  0  0  0
  1  8  1  0  0  0  0
  2 11  1  0  0  0  0
  2  1  1  0  0  0  0
  3  2  1  0  0  0  0
  3  4  1  0  0  0  0
  5  4  1  0  0  0  0
  5 16  1  0  0  0  0
  5  6  1  0  0  0  0
  7 17  1  0  0  0  0
  7 18  1  0  0  0  0
  7  6  1  0  0  0  0
 10  1  1  0  0  0  0
 12  2  1  0  0  0  0
 13  3  1  0  0  0  0
 14  3  1  0  0  0  0
 15  5  1  0  0  0  0
 19  7  1  0  0  0  0
M  END
$$$$
