0 1 CCF
 OpenBabel07282316283D

  8  7  0  0  0  0  0  0  0  0999 V2000
    1.7552    2.0262   -0.3719 C   0  0  0  0  0  0  0  0  0  0  0  0
    2.7328    0.9272   -0.0421 C   0  0  0  0  0  0  0  0  0  0  0  0
    3.9876    1.4746    0.2344 F   0  0  0  0  0  0  0  0  0  0  0  0
    1.6542    2.7236    0.4767 H   0  0  0  0  0  0  0  0  0  0  0  0
    0.7652    1.5916   -0.5898 H   0  0  0  0  0  0  0  0  0  0  0  0
    2.0926    2.5938   -1.2555 H   0  0  0  0  0  0  0  0  0  0  0  0
    2.4219    0.3461    0.8473 H   0  0  0  0  0  0  0  0  0  0  0  0
    2.8594    0.2164   -0.8812 H   0  0  0  0  0  0  0  0  0  0  0  0
  1  2  1  0  0  0  0
  1  4  1  0  0  0  0
  2  3  1  0  0  0  0
  2  7  1  0  0  0  0
  5  1  1  0  0  0  0
  6  1  1  0  0  0  0
  8  2  1  0  0  0  0
M  END
$$$$
