0 1 CCl
 OpenBabel07282316283D

  5  4  0  0  0  0  0  0  0  0999 V2000
    2.0742    0.8931    0.5159 C   0  0  0  0  0  0  0  0  0  0  0  0
    1.4853    0.2452    2.0535 Cl  0  0  0  0  0  0  0  0  0  0  0  0
    1.7544    0.2477   -0.3195 H   0  0  0  0  0  0  0  0  0  0  0  0
    3.1759    0.9447    0.5187 H   0  0  0  0  0  0  0  0  0  0  0  0
    1.6748    1.9077    0.3495 H   0  0  0  0  0  0  0  0  0  0  0  0
  1  4  1  0  0  0  0
  1  2  1  0  0  0  0
  3  1  1  0  0  0  0
  5  1  1  0  0  0  0
M  END
$$$$
