0 1 CCL=ORC
 OpenBabel07282316283D

 10  9  0  0  0  0  0  0  0  0999 V2000
    2.9486    2.9387    3.0065 C   0  0  0  0  0  0  0  0  0  0  0  0
    2.8040    1.6886    2.1696 C   0  0  0  0  0  0  0  0  0  0  0  0
    3.0382    1.6833    0.9721 O   0  0  0  0  0  0  0  0  0  0  0  0
    2.3528    0.4455    2.9011 C   0  0  0  0  0  0  0  0  0  0  0  0
    3.2864    3.7829    2.3822 H   0  0  0  0  0  0  0  0  0  0  0  0
    3.6866    2.7781    3.8103 H   0  0  0  0  0  0  0  0  0  0  0  0
    1.9814    3.2052    3.4650 H   0  0  0  0  0  0  0  0  0  0  0  0
    3.0755    0.1846    3.6924 H   0  0  0  0  0  0  0  0  0  0  0  0
    1.3666    0.6117    3.3662 H   0  0  0  0  0  0  0  0  0  0  0  0
    2.2736   -0.4046    2.2028 H   0  0  0  0  0  0  0  0  0  0  0  0
  1  7  1  0  0  0  0
  1  6  1  0  0  0  0
  2  4  1  0  0  0  0
  2  1  1  0  0  0  0
  3  2  2  0  0  0  0
  4  9  1  0  0  0  0
  4  8  1  0  0  0  0
  5  1  1  0  0  0  0
 10  4  1  0  0  0  0
M  END
$$$$
