0 1 CCL=CRC
 OpenBabel07282316283D

 12 11  0  0  0  0  0  0  0  0999 V2000
    1.0036    0.3617    1.3164 C   0  0  0  0  0  0  0  0  0  0  0  0
    2.2346    0.8819    2.0082 C   0  0  0  0  0  0  0  0  0  0  0  0
    3.4629    0.4490    1.6971 C   0  0  0  0  0  0  0  0  0  0  0  0
    1.9976    1.9197    3.0721 C   0  0  0  0  0  0  0  0  0  0  0  0
    1.2681   -0.3914    0.5552 H   0  0  0  0  0  0  0  0  0  0  0  0
    0.4700    1.1903    0.8210 H   0  0  0  0  0  0  0  0  0  0  0  0
    0.3255   -0.1039    2.0512 H   0  0  0  0  0  0  0  0  0  0  0  0
    4.3487    0.8389    2.2113 H   0  0  0  0  0  0  0  0  0  0  0  0
    3.6172   -0.3076    0.9193 H   0  0  0  0  0  0  0  0  0  0  0  0
    1.4974    2.8006    2.6357 H   0  0  0  0  0  0  0  0  0  0  0  0
    1.3529    1.5065    3.8660 H   0  0  0  0  0  0  0  0  0  0  0  0
    2.9495    2.2440    3.5251 H   0  0  0  0  0  0  0  0  0  0  0  0
  1  2  1  0  0  0  0
  1  7  1  0  0  0  0
  2  4  1  0  0  0  0
  3  2  2  0  0  0  0
  3  8  1  0  0  0  0
  4 12  1  0  0  0  0
  4 11  1  0  0  0  0
  5  1  1  0  0  0  0
  6  1  1  0  0  0  0
  9  3  1  0  0  0  0
 10  4  1  0  0  0  0
M  END
$$$$
