0 1 CCL=ORNLCRC
 OpenBabel07282316283D

 15 14  0  0  0  0  0  0  0  0999 V2000
    0.0000    0.0000    0.0000 C   0  0  0  0  0  0  0  0  0  0  0  0
    1.1779   -0.5975   -0.7933 C   0  0  0  0  0  0  0  0  0  0  0  0
    1.7666    0.1239   -1.6332 O   0  0  0  0  0  0  0  0  0  0  0  0
    1.6167   -1.8033   -0.4360 N   0  0  0  0  0  0  0  0  0  0  0  0
    0.8967   -2.5779    0.5797 C   0  0  0  0  0  0  0  0  0  0  0  0
    2.7512   -2.4145   -1.0657 C   0  0  0  0  0  0  0  0  0  0  0  0
   -0.3013    0.9386   -0.4949 H   0  0  0  0  0  0  0  0  0  0  0  0
    0.4331    0.2446    0.9845 H   0  0  0  0  0  0  0  0  0  0  0  0
   -0.8989   -0.6200    0.1553 H   0  0  0  0  0  0  0  0  0  0  0  0
   -0.1112   -2.7519    0.1669 H   0  0  0  0  0  0  0  0  0  0  0  0
    0.7946   -2.0865    1.5619 H   0  0  0  0  0  0  0  0  0  0  0  0
    1.3910   -3.5533    0.7241 H   0  0  0  0  0  0  0  0  0  0  0  0
    2.6342   -2.5755   -2.1506 H   0  0  0  0  0  0  0  0  0  0  0  0
    2.9209   -3.3909   -0.5815 H   0  0  0  0  0  0  0  0  0  0  0  0
    3.6375   -1.7798   -0.8978 H   0  0  0  0  0  0  0  0  0  0  0  0
  1  9  1  0  0  0  0
  1  8  1  0  0  0  0
  2  4  1  0  0  0  0
  2  1  1  0  0  0  0
  3  2  2  0  0  0  0
  4  5  1  0  0  0  0
  5 12  1  0  0  0  0
  5 11  1  0  0  0  0
  6 15  1  0  0  0  0
  6 14  1  0  0  0  0
  6  4  1  0  0  0  0
  7  1  1  0  0  0  0
 10  5  1  0  0  0  0
 13  6  1  0  0  0  0
M  END
$$$$
