0 1 CCL=ORN
 OpenBabel07282316283D

  9  8  0  0  0  0  0  0  0  0999 V2000
    0.2638   -0.3162    4.5322 C   0  0  0  0  0  0  0  0  0  0  0  0
    0.4065    0.3862    3.1998 C   0  0  0  0  0  0  0  0  0  0  0  0
    0.5928   -0.2053    2.1455 O   0  0  0  0  0  0  0  0  0  0  0  0
    0.3110    1.7483    3.2589 N   0  0  0  0  0  0  0  0  0  0  0  0
    0.3550   -1.4047    4.3793 H   0  0  0  0  0  0  0  0  0  0  0  0
   -0.7197   -0.1057    4.9849 H   0  0  0  0  0  0  0  0  0  0  0  0
    1.0507    0.0076    5.2341 H   0  0  0  0  0  0  0  0  0  0  0  0
    0.1552    2.2402    4.1423 H   0  0  0  0  0  0  0  0  0  0  0  0
    0.3998    2.2771    2.3877 H   0  0  0  0  0  0  0  0  0  0  0  0
  1  6  1  0  0  0  0
  1  7  1  0  0  0  0
  2  4  1  0  0  0  0
  2  1  1  0  0  0  0
  3  2  2  0  0  0  0
  4  8  1  0  0  0  0
  5  1  1  0  0  0  0
  9  4  1  0  0  0  0
M  END
$$$$
