0 1 CCL=CLCRCRC
 OpenBabel07282316283D

 18 17  0  0  0  0  0  0  0  0999 V2000
    3.8476    2.4491    1.8115 C   0  0  0  0  0  0  0  0  0  0  0  0
    3.2354    2.4600    0.4299 C   0  0  0  0  0  0  0  0  0  0  0  0
    3.0121    1.3558   -0.3161 C   0  0  0  0  0  0  0  0  0  0  0  0
    2.3997    1.3667   -1.6975 C   0  0  0  0  0  0  0  0  0  0  0  0
    3.3418   -0.0526    0.1211 C   0  0  0  0  0  0  0  0  0  0  0  0
    2.9060    3.8684   -0.0074 C   0  0  0  0  0  0  0  0  0  0  0  0
    4.1018    1.4364    2.1671 H   0  0  0  0  0  0  0  0  0  0  0  0
    4.7667    3.0586    1.7988 H   0  0  0  0  0  0  0  0  0  0  0  0
    3.1346    2.9023    2.5206 H   0  0  0  0  0  0  0  0  0  0  0  0
    1.4816    0.7556   -1.6850 H   0  0  0  0  0  0  0  0  0  0  0  0
    2.1437    2.3792   -2.0524 H   0  0  0  0  0  0  0  0  0  0  0  0
    3.1132    0.9152   -2.4072 H   0  0  0  0  0  0  0  0  0  0  0  0
    3.7925   -0.1022    1.1266 H   0  0  0  0  0  0  0  0  0  0  0  0
    2.4157   -0.6518    0.1208 H   0  0  0  0  0  0  0  0  0  0  0  0
    4.0470   -0.4945   -0.6028 H   0  0  0  0  0  0  0  0  0  0  0  0
    3.8319    4.4678   -0.0052 H   0  0  0  0  0  0  0  0  0  0  0  0
    2.4570    3.9182   -1.0136 H   0  0  0  0  0  0  0  0  0  0  0  0
    2.1994    4.3099    0.7154 H   0  0  0  0  0  0  0  0  0  0  0  0
  1  7  1  0  0  0  0
  1  9  1  0  0  0  0
  2  1  1  0  0  0  0
  3  5  1  0  0  0  0
  3  2  2  0  0  0  0
  4 10  1  0  0  0  0
  4  3  1  0  0  0  0
  5 13  1  0  0  0  0
  6 16  1  0  0  0  0
  6  2  1  0  0  0  0
  6 18  1  0  0  0  0
  8  1  1  0  0  0  0
 11  4  1  0  0  0  0
 12  4  1  0  0  0  0
 14  5  1  0  0  0  0
 15  5  1  0  0  0  0
 17  6  1  0  0  0  0
M  END
$$$$
