0 1 CCL=ORO
 OpenBabel07282316283D

  8  7  0  0  0  0  0  0  0  0999 V2000
   -0.7448    2.4610    2.5370 C   0  0  0  0  0  0  0  0  0  0  0  0
    0.6244    1.9285    2.2365 C   0  0  0  0  0  0  0  0  0  0  0  0
    1.5644    1.8977    2.9990 O   0  0  0  0  0  0  0  0  0  0  0  0
    0.7004    1.4642    0.9614 O   0  0  0  0  0  0  0  0  0  0  0  0
   -0.7899    2.8335    3.5742 H   0  0  0  0  0  0  0  0  0  0  0  0
   -1.5009    1.6673    2.4150 H   0  0  0  0  0  0  0  0  0  0  0  0
   -0.9926    3.2910    1.8540 H   0  0  0  0  0  0  0  0  0  0  0  0
    1.6347    1.1353    0.8562 H   0  0  0  0  0  0  0  0  0  0  0  0
  1  5  1  0  0  0  0
  2  1  1  0  0  0  0
  2  3  2  0  0  0  0
  4  2  1  0  0  0  0
  6  1  1  0  0  0  0
  7  1  1  0  0  0  0
  8  4  1  0  0  0  0
M  END
$$$$
