0 1 CCLCRLCRC
 OpenBabel07282316283D

 17 16  0  0  0  0  0  0  0  0999 V2000
    2.8191    0.2842    3.6785 C   0  0  0  0  0  0  0  0  0  0  0  0
    1.3349    0.5207    3.9729 C   0  0  0  0  0  0  0  0  0  0  0  0
    1.1371    0.7095    5.4798 C   0  0  0  0  0  0  0  0  0  0  0  0
    0.8617    1.7763    3.2347 C   0  0  0  0  0  0  0  0  0  0  0  0
    0.5216   -0.6873    3.4988 C   0  0  0  0  0  0  0  0  0  0  0  0
    3.4186    1.1468    4.0148 H   0  0  0  0  0  0  0  0  0  0  0  0
    2.9777    0.1462    2.5957 H   0  0  0  0  0  0  0  0  0  0  0  0
    3.1750   -0.6179    4.2039 H   0  0  0  0  0  0  0  0  0  0  0  0
    1.7175    1.5769    5.8368 H   0  0  0  0  0  0  0  0  0  0  0  0
    0.0717    0.8810    5.7080 H   0  0  0  0  0  0  0  0  0  0  0  0
    1.4738   -0.1878    6.0259 H   0  0  0  0  0  0  0  0  0  0  0  0
    0.9979    1.6554    2.1468 H   0  0  0  0  0  0  0  0  0  0  0  0
   -0.2069    1.9600    3.4372 H   0  0  0  0  0  0  0  0  0  0  0  0
    1.4389    2.6559    3.5659 H   0  0  0  0  0  0  0  0  0  0  0  0
    0.6539   -0.8364    2.4139 H   0  0  0  0  0  0  0  0  0  0  0  0
    0.8512   -1.6005    4.0222 H   0  0  0  0  0  0  0  0  0  0  0  0
   -0.5509   -0.5317    3.7043 H   0  0  0  0  0  0  0  0  0  0  0  0
  1  2  1  0  0  0  0
  1  6  1  0  0  0  0
  1  8  1  0  0  0  0
  2  3  1  0  0  0  0
  3 10  1  0  0  0  0
  3  9  1  0  0  0  0
  3 11  1  0  0  0  0
  4 13  1  0  0  0  0
  4 14  1  0  0  0  0
  4  2  1  0  0  0  0
  5 17  1  0  0  0  0
  5  2  1  0  0  0  0
  5 16  1  0  0  0  0
  7  1  1  0  0  0  0
 12  4  1  0  0  0  0
 15  5  1  0  0  0  0
M  END
$$$$
