0 1 CCLClRCl
 OpenBabel07282316283D

  8  7  0  0  0  0  0  0  0  0999 V2000
   -0.3224    1.3647    1.8381 C   0  0  0  0  0  0  0  0  0  0  0  0
    0.8601    0.8627    1.0462 C   0  0  0  0  0  0  0  0  0  0  0  0
    0.3359   -0.3038   -0.1927 Cl  0  0  0  0  0  0  0  0  0  0  0  0
    1.7268    2.2190    0.2849 Cl  0  0  0  0  0  0  0  0  0  0  0  0
   -0.8399    0.5211    2.3249 H   0  0  0  0  0  0  0  0  0  0  0  0
   -1.0388    1.8843    1.1798 H   0  0  0  0  0  0  0  0  0  0  0  0
    0.0133    2.0688    2.6179 H   0  0  0  0  0  0  0  0  0  0  0  0
    1.6019    0.3340    1.6788 H   0  0  0  0  0  0  0  0  0  0  0  0
  1  5  1  0  0  0  0
  1  7  1  0  0  0  0
  2  8  1  0  0  0  0
  2  1  1  0  0  0  0
  3  2  1  0  0  0  0
  4  2  1  0  0  0  0
  6  1  1  0  0  0  0
M  END
$$$$
