0 1 CCLORC
 OpenBabel07282316283D

 12 11  0  0  0  0  0  0  0  0999 V2000
    0.3752    0.6730    0.0268 C   0  0  0  0  0  0  0  0  0  0  0  0
    1.4628   -0.0980   -0.7061 C   0  0  0  0  0  0  0  0  0  0  0  0
    2.6086   -0.2991    0.1335 O   0  0  0  0  0  0  0  0  0  0  0  0
    1.0025   -1.4805   -1.1220 C   0  0  0  0  0  0  0  0  0  0  0  0
    0.0606    0.1110    0.9222 H   0  0  0  0  0  0  0  0  0  0  0  0
   -0.5028    0.8158   -0.6255 H   0  0  0  0  0  0  0  0  0  0  0  0
    0.7425    1.6635    0.3441 H   0  0  0  0  0  0  0  0  0  0  0  0
    1.7670    0.4698   -1.6088 H   0  0  0  0  0  0  0  0  0  0  0  0
    2.9116    0.5802    0.4424 H   0  0  0  0  0  0  0  0  0  0  0  0
    0.1396   -1.4128   -1.8057 H   0  0  0  0  0  0  0  0  0  0  0  0
    1.8160   -2.0209   -1.6347 H   0  0  0  0  0  0  0  0  0  0  0  0
    0.7020   -2.0589   -0.2323 H   0  0  0  0  0  0  0  0  0  0  0  0
  1  7  1  0  0  0  0
  1  5  1  0  0  0  0
  2  1  1  0  0  0  0
  2  3  1  0  0  0  0
  3  9  1  0  0  0  0
  4  2  1  0  0  0  0
  4 12  1  0  0  0  0
  6  1  1  0  0  0  0
  8  2  1  0  0  0  0
 10  4  1  0  0  0  0
 11  4  1  0  0  0  0
M  END
$$$$
