0 1 CCN
 OpenBabel07282316283D

 10  9  0  0  0  0  0  0  0  0999 V2000
   -0.5386    2.9795    1.3463 C   0  0  0  0  0  0  0  0  0  0  0  0
    0.4467    1.9217    0.8473 C   0  0  0  0  0  0  0  0  0  0  0  0
    0.5518    0.7211    1.6781 N   0  0  0  0  0  0  0  0  0  0  0  0
   -1.5551    2.5551    1.4025 H   0  0  0  0  0  0  0  0  0  0  0  0
   -0.5569    3.8476    0.6660 H   0  0  0  0  0  0  0  0  0  0  0  0
   -0.2462    3.3266    2.3516 H   0  0  0  0  0  0  0  0  0  0  0  0
    0.1521    1.5958   -0.1688 H   0  0  0  0  0  0  0  0  0  0  0  0
    1.4584    2.3657    0.7783 H   0  0  0  0  0  0  0  0  0  0  0  0
   -0.3680    0.2744    1.7621 H   0  0  0  0  0  0  0  0  0  0  0  0
    0.8302    0.9806    2.6309 H   0  0  0  0  0  0  0  0  0  0  0  0
  1  4  1  0  0  0  0
  1  6  1  0  0  0  0
  2  1  1  0  0  0  0
  2  3  1  0  0  0  0
  3  9  1  0  0  0  0
  3 10  1  0  0  0  0
  5  1  1  0  0  0  0
  7  2  1  0  0  0  0
  8  2  1  0  0  0  0
M  END
$$$$
