0 1 CCNCL=MNH2+QRN
 OpenBabel07282316353D

 16 15  0  0  0  0  0  0  0  0999 V2000
    0.0000    0.0000    0.0000 C   0  0  0  0  0  0  0  0  0  0  0  0
   -0.1974   -1.2572   -0.8336 C   0  0  0  0  0  0  0  0  0  0  0  0
    0.4387   -2.3638   -0.1191 N   0  0  0  0  0  0  0  0  0  0  0  0
    1.7499   -2.3882   -0.0211 C   0  0  0  0  0  0  0  0  0  0  0  0
    2.5819   -1.7160   -0.7979 N   0  3  0  0  0  0  0  0  0  0  0  0
    2.2438   -0.9238   -1.3498 H   0  0  0  0  0  0  0  0  0  0  0  0
    3.5868   -1.8856   -0.7089 H   0  0  0  0  0  0  0  0  0  0  0  0
    2.2602   -3.3594    0.7884 N   0  0  0  0  0  0  0  0  0  0  0  0
   -0.1836   -0.1991    1.0692 H   0  0  0  0  0  0  0  0  0  0  0  0
   -0.6834    0.7998   -0.3313 H   0  0  0  0  0  0  0  0  0  0  0  0
    1.0383    0.3527   -0.1189 H   0  0  0  0  0  0  0  0  0  0  0  0
   -1.2659   -1.3936   -1.0890 H   0  0  0  0  0  0  0  0  0  0  0  0
    0.3703   -1.1966   -1.7820 H   0  0  0  0  0  0  0  0  0  0  0  0
   -0.1196   -2.9931    0.4630 H   0  0  0  0  0  0  0  0  0  0  0  0
    1.7985   -4.2464    1.0042 H   0  0  0  0  0  0  0  0  0  0  0  0
    3.2768   -3.2789    0.8699 H   0  0  0  0  0  0  0  0  0  0  0  0
  1  9  1  0  0  0  0
  2  3  1  0  0  0  0
  2  1  1  0  0  0  0
  3  4  1  0  0  0  0
  3 14  1  0  0  0  0
  4  8  1  0  0  0  0
  5  7  1  0  0  0  0
  5  4  2  0  0  0  0
  6  5  1  0  0  0  0
  8 16  1  0  0  0  0
  8 15  1  0  0  0  0
 10  1  1  0  0  0  0
 11  1  1  0  0  0  0
 12  2  1  0  0  0  0
 13  2  1  0  0  0  0
M  END
$$$$
