0 1 CCNLCL=ORCRCC
 OpenBabel07282316283D

 21 20  0  0  0  0  0  0  0  0999 V2000
    0.0000    0.0000    0.0000 C   0  0  0  0  0  0  0  0  0  0  0  0
   -1.2651   -0.7741   -0.3754 C   0  0  0  0  0  0  0  0  0  0  0  0
   -1.2214   -2.1661   -0.0494 N   0  0  0  0  0  0  0  0  0  0  0  0
   -1.3314   -2.6881    1.2148 C   0  0  0  0  0  0  0  0  0  0  0  0
   -1.3889   -3.8895    1.4202 O   0  0  0  0  0  0  0  0  0  0  0  0
   -1.3156   -1.7789    2.4684 C   0  0  0  0  0  0  0  0  0  0  0  0
   -0.8427   -2.9587   -1.1899 C   0  0  0  0  0  0  0  0  0  0  0  0
   -2.0880   -3.4991   -1.9820 C   0  0  0  0  0  0  0  0  0  0  0  0
    0.1097    0.1447    1.0879 H   0  0  0  0  0  0  0  0  0  0  0  0
   -0.1208    0.9877   -0.4759 H   0  0  0  0  0  0  0  0  0  0  0  0
    0.9211   -0.4669   -0.3875 H   0  0  0  0  0  0  0  0  0  0  0  0
   -1.9917   -0.2168    0.2467 H   0  0  0  0  0  0  0  0  0  0  0  0
   -1.5481   -0.6280   -1.4356 H   0  0  0  0  0  0  0  0  0  0  0  0
   -1.6933   -2.3325    3.3445 H   0  0  0  0  0  0  0  0  0  0  0  0
   -1.8795   -0.8352    2.3787 H   0  0  0  0  0  0  0  0  0  0  0  0
   -0.2522   -1.5387    2.6358 H   0  0  0  0  0  0  0  0  0  0  0  0
   -0.2010   -2.3218   -1.8287 H   0  0  0  0  0  0  0  0  0  0  0  0
   -0.2530   -3.8509   -0.9038 H   0  0  0  0  0  0  0  0  0  0  0  0
   -2.7601   -2.7079   -2.3547 H   0  0  0  0  0  0  0  0  0  0  0  0
   -2.6731   -4.1896   -1.3515 H   0  0  0  0  0  0  0  0  0  0  0  0
   -1.6927   -4.0604   -2.8453 H   0  0  0  0  0  0  0  0  0  0  0  0
  1  9  1  0  0  0  0
  2  3  1  0  0  0  0
  2  1  1  0  0  0  0
  2 12  1  0  0  0  0
  3  4  1  0  0  0  0
  4  5  2  0  0  0  0
  4  6  1  0  0  0  0
  6 16  1  0  0  0  0
  6 14  1  0  0  0  0
  7 18  1  0  0  0  0
  7  3  1  0  0  0  0
  8 20  1  0  0  0  0
  8  7  1  0  0  0  0
 10  1  1  0  0  0  0
 11  1  1  0  0  0  0
 13  2  1  0  0  0  0
 15  6  1  0  0  0  0
 17  7  1  0  0  0  0
 19  8  1  0  0  0  0
 21  8  1  0  0  0  0
M  END
$$$$
