0 1 CCNLCL=ORCRC
 OpenBabel07282316283D

 18 17  0  0  0  0  0  0  0  0999 V2000
    0.0000    0.0000    0.0000 C   0  0  0  0  0  0  0  0  0  0  0  0
    0.4747    0.0392   -1.4632 C   0  0  0  0  0  0  0  0  0  0  0  0
    1.5800   -0.9244   -1.6286 N   0  0  0  0  0  0  0  0  0  0  0  0
    2.8712   -0.5290   -1.7670 C   0  0  0  0  0  0  0  0  0  0  0  0
    3.8037   -1.3241   -1.9621 O   0  0  0  0  0  0  0  0  0  0  0  0
    3.3148    0.9325   -1.5742 C   0  0  0  0  0  0  0  0  0  0  0  0
    1.1720   -2.3228   -1.7696 C   0  0  0  0  0  0  0  0  0  0  0  0
   -0.7233    0.8257    0.1079 H   0  0  0  0  0  0  0  0  0  0  0  0
    0.8207    0.1548    0.7205 H   0  0  0  0  0  0  0  0  0  0  0  0
   -0.5088   -0.9476    0.2446 H   0  0  0  0  0  0  0  0  0  0  0  0
   -0.3768   -0.2102   -2.1252 H   0  0  0  0  0  0  0  0  0  0  0  0
    0.8403    1.0442   -1.7492 H   0  0  0  0  0  0  0  0  0  0  0  0
    2.8630    1.3805   -0.6731 H   0  0  0  0  0  0  0  0  0  0  0  0
    2.9797    1.5032   -2.4566 H   0  0  0  0  0  0  0  0  0  0  0  0
    4.4118    1.0166   -1.4966 H   0  0  0  0  0  0  0  0  0  0  0  0
    0.6546   -2.6201   -0.8420 H   0  0  0  0  0  0  0  0  0  0  0  0
    2.0213   -3.0073   -1.9336 H   0  0  0  0  0  0  0  0  0  0  0  0
    0.4690   -2.4261   -2.6133 H   0  0  0  0  0  0  0  0  0  0  0  0
  1  8  1  0  0  0  0
  1 10  1  0  0  0  0
  1  9  1  0  0  0  0
  2  1  1  0  0  0  0
  3  2  1  0  0  0  0
  4  3  1  0  0  0  0
  4  6  1  0  0  0  0
  5  4  2  0  0  0  0
  6 15  1  0  0  0  0
  6 13  1  0  0  0  0
  7  3  1  0  0  0  0
  7 16  1  0  0  0  0
 11  2  1  0  0  0  0
 12  2  1  0  0  0  0
 14  6  1  0  0  0  0
 17  7  1  0  0  0  0
 18  7  1  0  0  0  0
M  END
$$$$
