0 1 CCNLCRC
 OpenBabel07282316283D

 16 15  0  0  0  0  0  0  0  0999 V2000
    3.0015    1.3268   -0.6026 C   0  0  0  0  0  0  0  0  0  0  0  0
    2.7139    0.8436    0.8133 C   0  0  0  0  0  0  0  0  0  0  0  0
    2.4088    1.9319    1.7415 N   0  0  0  0  0  0  0  0  0  0  0  0
    1.9717    1.3767    3.0149 C   0  0  0  0  0  0  0  0  0  0  0  0
    3.5732    2.7811    1.9621 C   0  0  0  0  0  0  0  0  0  0  0  0
    2.1812    1.9782   -0.9480 H   0  0  0  0  0  0  0  0  0  0  0  0
    3.0705    0.4588   -1.2798 H   0  0  0  0  0  0  0  0  0  0  0  0
    3.9469    1.8922   -0.6579 H   0  0  0  0  0  0  0  0  0  0  0  0
    1.8260    0.1828    0.7918 H   0  0  0  0  0  0  0  0  0  0  0  0
    3.5686    0.2470    1.1861 H   0  0  0  0  0  0  0  0  0  0  0  0
    2.7514    0.7554    3.4869 H   0  0  0  0  0  0  0  0  0  0  0  0
    1.7123    2.1986    3.7031 H   0  0  0  0  0  0  0  0  0  0  0  0
    1.0748    0.7547    2.8557 H   0  0  0  0  0  0  0  0  0  0  0  0
    4.4332    2.2058    2.3442 H   0  0  0  0  0  0  0  0  0  0  0  0
    3.8702    3.2750    1.0216 H   0  0  0  0  0  0  0  0  0  0  0  0
    3.3135    3.5581    2.7007 H   0  0  0  0  0  0  0  0  0  0  0  0
  1  2  1  0  0  0  0
  2 10  1  0  0  0  0
  2  3  1  0  0  0  0
  3  5  1  0  0  0  0
  3  4  1  0  0  0  0
  4 11  1  0  0  0  0
  4 12  1  0  0  0  0
  5 14  1  0  0  0  0
  5 16  1  0  0  0  0
  6  1  1  0  0  0  0
  7  1  1  0  0  0  0
  8  1  1  0  0  0  0
  9  2  1  0  0  0  0
 13  4  1  0  0  0  0
 15  5  1  0  0  0  0
M  END
$$$$
