0 1 CCO
 OpenBabel07282316283D

  9  8  0  0  0  0  0  0  0  0999 V2000
    2.4875    2.6856    3.1548 C   0  0  0  0  0  0  0  0  0  0  0  0
    3.1038    1.3870    2.6653 C   0  0  0  0  0  0  0  0  0  0  0  0
    3.2142    1.3335    1.2421 O   0  0  0  0  0  0  0  0  0  0  0  0
    3.0775    3.5454    2.7952 H   0  0  0  0  0  0  0  0  0  0  0  0
    2.4686    2.7083    4.2574 H   0  0  0  0  0  0  0  0  0  0  0  0
    1.4541    2.7880    2.7830 H   0  0  0  0  0  0  0  0  0  0  0  0
    4.1419    1.2876    3.0366 H   0  0  0  0  0  0  0  0  0  0  0  0
    2.5273    0.5201    3.0417 H   0  0  0  0  0  0  0  0  0  0  0  0
    2.3095    1.4054    0.8723 H   0  0  0  0  0  0  0  0  0  0  0  0
  1  5  1  0  0  0  0
  2  7  1  0  0  0  0
  2  8  1  0  0  0  0
  2  1  1  0  0  0  0
  3  2  1  0  0  0  0
  4  1  1  0  0  0  0
  6  1  1  0  0  0  0
  9  3  1  0  0  0  0
M  END
$$$$
