0 1 CCOCL=ORCC
 OpenBabel07282316283D

 17 16  0  0  0  0  0  0  0  0999 V2000
    0.0000    0.0000    0.0000 C   0  0  0  0  0  0  0  0  0  0  0  0
    0.2480    1.4654    0.5311 C   0  0  0  0  0  0  0  0  0  0  0  0
   -1.0889    1.9453    0.8708 O   0  0  0  0  0  0  0  0  0  0  0  0
   -1.7126    2.7889    0.0798 C   0  0  0  0  0  0  0  0  0  0  0  0
   -1.4181    2.9352   -1.1107 O   0  0  0  0  0  0  0  0  0  0  0  0
   -2.8835    3.5729    0.7367 C   0  0  0  0  0  0  0  0  0  0  0  0
   -3.5971    2.7963    1.7997 C   0  0  0  0  0  0  0  0  0  0  0  0
   -0.5285   -0.5502    0.7966 H   0  0  0  0  0  0  0  0  0  0  0  0
    0.9282   -0.5427   -0.2462 H   0  0  0  0  0  0  0  0  0  0  0  0
   -0.6419    0.0238   -0.8966 H   0  0  0  0  0  0  0  0  0  0  0  0
    0.7961    2.1098   -0.1828 H   0  0  0  0  0  0  0  0  0  0  0  0
    0.8531    1.3967    1.4555 H   0  0  0  0  0  0  0  0  0  0  0  0
   -2.3776    4.4751    1.1313 H   0  0  0  0  0  0  0  0  0  0  0  0
   -3.5800    3.8988   -0.0596 H   0  0  0  0  0  0  0  0  0  0  0  0
   -4.1757    2.0744    1.1991 H   0  0  0  0  0  0  0  0  0  0  0  0
   -4.2998    3.3947    2.4035 H   0  0  0  0  0  0  0  0  0  0  0  0
   -2.9357    2.2361    2.4819 H   0  0  0  0  0  0  0  0  0  0  0  0
  1  2  1  0  0  0  0
  1  8  1  0  0  0  0
  2  3  1  0  0  0  0
  2 12  1  0  0  0  0
  4  6  1  0  0  0  0
  4  3  1  0  0  0  0
  5  4  2  0  0  0  0
  6 13  1  0  0  0  0
  6  7  1  0  0  0  0
  7 16  1  0  0  0  0
  7 17  1  0  0  0  0
  9  1  1  0  0  0  0
 10  1  1  0  0  0  0
 11  2  1  0  0  0  0
 14  6  1  0  0  0  0
 15  7  1  0  0  0  0
M  END
$$$$
