0 1 CCOPL=ORLOCROC
 OpenBabel07282316283D

 20 19  0  0  0  0  0  0  0  0999 V2000
    0.0000    0.0000    0.0000 C   0  0  0  0  0  0  0  0  0  0  0  0
    0.6680    1.3159   -0.3565 C   0  0  0  0  0  0  0  0  0  0  0  0
    1.8374    1.4098    0.3735 O   0  0  0  0  0  0  0  0  0  0  0  0
    3.2648    1.4222   -0.2374 P   0  0  0  0  0  0  0  0  0  0  0  0
    3.4954    2.2258   -1.4437 O   0  0  0  0  0  0  0  0  0  0  0  0
    4.0190    1.8786    1.1058 O   0  0  0  0  0  0  0  0  0  0  0  0
    5.4142    1.8387    1.1588 C   0  0  0  0  0  0  0  0  0  0  0  0
    3.6641   -0.1348   -0.3470 O   0  0  0  0  0  0  0  0  0  0  0  0
    4.3070   -0.5430   -1.5684 C   0  0  0  0  0  0  0  0  0  0  0  0
    0.6592   -0.8300   -0.3053 H   0  0  0  0  0  0  0  0  0  0  0  0
   -1.0167   -0.2011   -0.3776 H   0  0  0  0  0  0  0  0  0  0  0  0
   -0.0345    0.0348    1.1019 H   0  0  0  0  0  0  0  0  0  0  0  0
    0.8217    1.4334   -1.4465 H   0  0  0  0  0  0  0  0  0  0  0  0
   -0.0418    2.1002   -0.0303 H   0  0  0  0  0  0  0  0  0  0  0  0
    5.8518    0.9596    1.6609 H   0  0  0  0  0  0  0  0  0  0  0  0
    5.6216    2.7328    1.7705 H   0  0  0  0  0  0  0  0  0  0  0  0
    5.9025    1.9628    0.1776 H   0  0  0  0  0  0  0  0  0  0  0  0
    3.5547   -0.7032   -2.3590 H   0  0  0  0  0  0  0  0  0  0  0  0
    4.8200   -1.4995   -1.3719 H   0  0  0  0  0  0  0  0  0  0  0  0
    5.0500    0.1864   -1.9324 H   0  0  0  0  0  0  0  0  0  0  0  0
  1 12  1  0  0  0  0
  2 14  1  0  0  0  0
  2  1  1  0  0  0  0
  2  3  1  0  0  0  0
  4  3  1  0  0  0  0
  4  6  1  0  0  0  0
  5  4  2  0  0  0  0
  6  7  1  0  0  0  0
  7 15  1  0  0  0  0
  7 16  1  0  0  0  0
  8  4  1  0  0  0  0
  9 19  1  0  0  0  0
  9  8  1  0  0  0  0
 10  1  1  0  0  0  0
 11  1  1  0  0  0  0
 13  2  1  0  0  0  0
 17  7  1  0  0  0  0
 18  9  1  0  0  0  0
 20  9  1  0  0  0  0
M  END
$$$$
