0 1 CCOPL=ORLOCRO
 OpenBabel07282316283D

 17 16  0  0  0  0  0  0  0  0999 V2000
    0.0000    0.0000    0.0000 C   0  0  0  0  0  0  0  0  0  0  0  0
   -0.4429    1.2806   -0.7945 C   0  0  0  0  0  0  0  0  0  0  0  0
   -1.8284    1.1364   -1.0166 O   0  0  0  0  0  0  0  0  0  0  0  0
   -2.5386    1.8935   -2.3134 P   0  0  2  0  0  0  0  0  0  0  0  0
   -1.8098    1.7346   -3.5594 O   0  0  0  0  0  0  0  0  0  0  0  0
   -2.6783    3.4187   -1.7905 O   0  0  0  0  0  0  0  0  0  0  0  0
   -3.2348    4.3191   -2.6674 C   0  0  0  0  0  0  0  0  0  0  0  0
   -4.0122    1.3524   -2.3258 O   0  0  0  0  0  0  0  0  0  0  0  0
   -0.0041    0.1342    1.0948 H   0  0  0  0  0  0  0  0  0  0  0  0
    0.9833   -0.3982   -0.3020 H   0  0  0  0  0  0  0  0  0  0  0  0
   -0.7753   -0.7377   -0.2669 H   0  0  0  0  0  0  0  0  0  0  0  0
   -0.2881    2.1991   -0.1965 H   0  0  0  0  0  0  0  0  0  0  0  0
    0.1388    1.3862   -1.7304 H   0  0  0  0  0  0  0  0  0  0  0  0
   -2.5658    4.5955   -3.4997 H   0  0  0  0  0  0  0  0  0  0  0  0
   -3.4602    5.2258   -2.0812 H   0  0  0  0  0  0  0  0  0  0  0  0
   -4.1768    3.9288   -3.0880 H   0  0  0  0  0  0  0  0  0  0  0  0
   -4.0142    0.5132   -1.7912 H   0  0  0  0  0  0  0  0  0  0  0  0
  1  9  1  0  0  0  0
  2 12  1  0  0  0  0
  2  1  1  0  0  0  0
  3  2  1  0  0  0  0
  4  5  2  6  0  0  0
  4  6  1  0  0  0  0
  4  3  1  0  0  0  0
  7 15  1  0  0  0  0
  7  6  1  0  0  0  0
  8  4  1  0  0  0  0
  8 17  1  0  0  0  0
 10  1  1  0  0  0  0
 11  1  1  0  0  0  0
 13  2  1  0  0  0  0
 14  7  1  0  0  0  0
 16  7  1  0  0  0  0
M  END
$$$$
