0 1 CCOPL=ORLOCRMO-Q
 OpenBabel07282316283D

 16 15  0  0  0  0  0  0  0  0999 V2000
    0.0000    0.0000    0.0000 C   0  0  0  0  0  0  0  0  0  0  0  0
   -1.4490    0.3743   -0.2727 C   0  0  0  0  0  0  0  0  0  0  0  0
   -2.4063   -0.5964    0.0508 O   0  0  0  0  0  0  0  0  0  0  0  0
   -2.5435   -2.0777   -0.6921 P   0  0  1  0  0  0  0  0  0  0  0  0
   -2.6832   -1.8996   -2.1772 O   0  0  0  0  0  0  0  0  0  0  0  0
   -1.0674   -2.8129   -0.4675 O   0  0  0  0  0  0  0  0  0  0  0  0
   -0.5363   -3.0350    0.8286 C   0  0  0  0  0  0  0  0  0  0  0  0
   -3.6113   -2.8893   -0.0504 O   0  0  0  0  0  1  0  0  0  0  0  0
    0.3020   -0.8919   -0.5744 H   0  0  0  0  0  0  0  0  0  0  0  0
    0.1878   -0.1905    1.0701 H   0  0  0  0  0  0  0  0  0  0  0  0
    0.6228    0.8522   -0.3202 H   0  0  0  0  0  0  0  0  0  0  0  0
   -1.6034    1.2606    0.3723 H   0  0  0  0  0  0  0  0  0  0  0  0
   -1.5730    0.6974   -1.3242 H   0  0  0  0  0  0  0  0  0  0  0  0
   -0.8569   -2.2846    1.5707 H   0  0  0  0  0  0  0  0  0  0  0  0
    0.5473   -2.9200    0.6574 H   0  0  0  0  0  0  0  0  0  0  0  0
   -0.7224   -4.0405    1.2420 H   0  0  0  0  0  0  0  0  0  0  0  0
  1 10  1  0  0  0  0
  2  1  1  0  0  0  0
  2  3  1  0  0  0  0
  2 12  1  0  0  0  0
  4  5  2  6  0  0  0
  4  6  1  0  0  0  0
  4  8  1  0  0  0  0
  4  3  1  0  0  0  0
  6  7  1  0  0  0  0
  7 16  1  0  0  0  0
  7 14  1  0  0  0  0
  9  1  1  0  0  0  0
 11  1  1  0  0  0  0
 13  2  1  0  0  0  0
 15  7  1  0  0  0  0
M  END
$$$$
