0 1 CCS
 OpenBabel07282316283D

  9  8  0  0  0  0  0  0  0  0999 V2000
    1.7617    2.6274   -0.5350 C   0  0  0  0  0  0  0  0  0  0  0  0
    1.2000    3.5859    0.5056 C   0  0  0  0  0  0  0  0  0  0  0  0
   -0.4113    3.0702    1.1753 S   0  0  0  0  0  0  0  0  0  0  0  0
    1.8617    1.6144   -0.1103 H   0  0  0  0  0  0  0  0  0  0  0  0
    2.7559    2.9686   -0.8692 H   0  0  0  0  0  0  0  0  0  0  0  0
    1.0940    2.5771   -1.4115 H   0  0  0  0  0  0  0  0  0  0  0  0
    1.8600    3.6303    1.3933 H   0  0  0  0  0  0  0  0  0  0  0  0
    1.1117    4.6122    0.1002 H   0  0  0  0  0  0  0  0  0  0  0  0
   -1.0781    3.1063    0.0021 H   0  0  0  0  0  0  0  0  0  0  0  0
  1  4  1  0  0  0  0
  1  2  1  0  0  0  0
  2  3  1  0  0  0  0
  2  7  1  0  0  0  0
  5  1  1  0  0  0  0
  6  1  1  0  0  0  0
  8  2  1  0  0  0  0
  9  3  1  0  0  0  0
M  END
$$$$
