0 1 Clc1ccccc1Cl
 OpenBabel07282316283D

 12 12  0  0  0  0  0  0  0  0999 V2000
    0.0000    0.0000    0.0000 Cl  0  0  0  0  0  0  0  0  0  0  0  0
   -1.0101    0.0813   -1.3932 C   0  0  0  0  0  0  0  0  0  0  0  0
   -2.1671   -0.7637   -1.5481 C   0  0  0  0  0  0  0  0  0  0  0  0
   -2.9255   -0.7348   -2.7450 C   0  0  0  0  0  0  0  0  0  0  0  0
   -2.5540    0.1661   -3.8081 C   0  0  0  0  0  0  0  0  0  0  0  0
   -1.3605    0.8664   -3.6925 C   0  0  0  0  0  0  0  0  0  0  0  0
   -0.6733    0.8927   -2.4975 C   0  0  0  0  0  0  0  0  0  0  0  0
    0.6512    1.9813   -2.3009 Cl  0  0  0  0  0  0  0  0  0  0  0  0
   -2.4946   -1.5247   -0.8276 H   0  0  0  0  0  0  0  0  0  0  0  0
   -3.7140   -1.4970   -2.7999 H   0  0  0  0  0  0  0  0  0  0  0  0
   -3.1521    0.0665   -4.7235 H   0  0  0  0  0  0  0  0  0  0  0  0
   -0.9483    1.4577   -4.5209 H   0  0  0  0  0  0  0  0  0  0  0  0
  2  1  1  0  0  0  0
  3  2  1  0  0  0  0
  3  9  1  0  0  0  0
  4  3  2  0  0  0  0
  5  6  2  0  0  0  0
  5  4  1  0  0  0  0
  6  7  1  0  0  0  0
  7  8  1  0  0  0  0
  7  2  2  0  0  0  0
 10  4  1  0  0  0  0
 11  5  1  0  0  0  0
 12  6  1  0  0  0  0
M  END
$$$$
