0 1 Clc1ccLClRccLc1RCl
 OpenBabel07282316283D

 12 12  0  0  0  0  0  0  0  0999 V2000
    0.0000    0.0000    0.0000 Cl  0  0  0  0  0  0  0  0  0  0  0  0
   -0.2995    1.3697    0.9905 C   0  0  0  0  0  0  0  0  0  0  0  0
    0.6245    1.8538    1.9595 C   0  0  0  0  0  0  0  0  0  0  0  0
    0.3931    2.9899    2.6348 C   0  0  0  0  0  0  0  0  0  0  0  0
    1.6498    3.5112    3.7645 Cl  0  0  0  0  0  0  0  0  0  0  0  0
   -0.8011    3.6486    2.4990 C   0  0  0  0  0  0  0  0  0  0  0  0
   -1.7728    3.2986    1.5978 C   0  0  0  0  0  0  0  0  0  0  0  0
   -1.4708    2.2003    0.7763 C   0  0  0  0  0  0  0  0  0  0  0  0
   -3.1189    4.3866    1.3780 Cl  0  0  0  0  0  0  0  0  0  0  0  0
    1.6198    1.4217    2.1278 H   0  0  0  0  0  0  0  0  0  0  0  0
   -0.8878    4.5254    3.1543 H   0  0  0  0  0  0  0  0  0  0  0  0
   -2.3079    1.8941    0.1352 H   0  0  0  0  0  0  0  0  0  0  0  0
  1  2  1  0  0  0  0
  2  3  1  0  0  0  0
  3 10  1  0  0  0  0
  3  4  2  0  0  0  0
  4  5  1  0  0  0  0
  6  4  1  0  0  0  0
  6 11  1  0  0  0  0
  7  6  2  0  0  0  0
  8  2  2  0  0  0  0
  8  7  1  0  0  0  0
  9  7  1  0  0  0  0
 12  8  1  0  0  0  0
M  END
$$$$
