0 1 ClCCl
 OpenBabel07282316283D

  5  4  0  0  0  0  0  0  0  0999 V2000
    0.1023    2.2258    2.3248 Cl  0  0  0  0  0  0  0  0  0  0  0  0
    0.6348    0.9617    1.2164 C   0  0  0  0  0  0  0  0  0  0  0  0
    2.1948    1.3170    0.4747 Cl  0  0  0  0  0  0  0  0  0  0  0  0
    0.7062    0.0042    1.7675 H   0  0  0  0  0  0  0  0  0  0  0  0
   -0.1239    0.8359    0.4201 H   0  0  0  0  0  0  0  0  0  0  0  0
  2  4  1  0  0  0  0
  2  1  1  0  0  0  0
  3  2  1  0  0  0  0
  5  2  1  0  0  0  0
M  END
$$$$
