0 1 ClCCLClRCl
 OpenBabel07282316283D

  8  7  0  0  0  0  0  0  0  0999 V2000
    0.0000    0.0000    0.0000 Cl  0  0  0  0  0  0  0  0  0  0  0  0
   -1.5992    0.8505    0.0139 C   0  0  0  0  0  0  0  0  0  0  0  0
   -2.2511    0.8444    1.3751 C   0  0  0  0  0  0  0  0  0  0  0  0
   -3.6262    2.0539    1.4109 Cl  0  0  0  0  0  0  0  0  0  0  0  0
   -2.7928   -0.7232    1.7983 Cl  0  0  0  0  0  0  0  0  0  0  0  0
   -1.4241    1.8502   -0.4280 H   0  0  0  0  0  0  0  0  0  0  0  0
   -2.2025    0.2651   -0.7065 H   0  0  0  0  0  0  0  0  0  0  0  0
   -1.6266    1.1743    2.2301 H   0  0  0  0  0  0  0  0  0  0  0  0
  1  2  1  0  0  0  0
  2  3  1  0  0  0  0
  3  4  1  0  0  0  0
  3  5  1  0  0  0  0
  3  8  1  0  0  0  0
  6  2  1  0  0  0  0
  7  2  1  0  0  0  0
M  END
$$$$
