0 1 ClCCCl
 OpenBabel07282316283D

  8  7  0  0  0  0  0  0  0  0999 V2000
    4.5954    1.2205    1.3491 Cl  0  0  0  0  0  0  0  0  0  0  0  0
    2.8987    1.7026    1.6090 C   0  0  0  0  0  0  0  0  0  0  0  0
    2.4933    2.6984    0.5476 C   0  0  0  0  0  0  0  0  0  0  0  0
    0.7966    3.1806    0.8075 Cl  0  0  0  0  0  0  0  0  0  0  0  0
    2.2702    0.7920    1.5743 H   0  0  0  0  0  0  0  0  0  0  0  0
    2.8122    2.1328    2.6253 H   0  0  0  0  0  0  0  0  0  0  0  0
    3.1218    3.6091    0.5822 H   0  0  0  0  0  0  0  0  0  0  0  0
    2.5798    2.2682   -0.4688 H   0  0  0  0  0  0  0  0  0  0  0  0
  1  2  1  0  0  0  0
  2  6  1  0  0  0  0
  3  7  1  0  0  0  0
  3  4  1  0  0  0  0
  3  2  1  0  0  0  0
  5  2  1  0  0  0  0
  8  3  1  0  0  0  0
M  END
$$$$
