0 1 ClCLCLClRLClRClRCl
 OpenBabel07282316283D

  8  7  0  0  0  0  0  0  0  0999 V2000
    0.0000    0.0000    0.0000 Cl  0  0  0  0  0  0  0  0  0  0  0  0
   -1.2839   -0.2168   -1.1761 C   0  0  0  0  0  0  0  0  0  0  0  0
   -0.7318   -1.2828   -2.2276 C   0  0  0  0  0  0  0  0  0  0  0  0
   -2.1229   -1.8851   -3.1683 Cl  0  0  0  0  0  0  0  0  0  0  0  0
    0.4865   -0.4896   -3.3214 Cl  0  0  0  0  0  0  0  0  0  0  0  0
   -0.0294   -2.6953   -1.4618 Cl  0  0  0  0  0  0  0  0  0  0  0  0
   -1.6870    1.2821   -1.8221 Cl  0  0  0  0  0  0  0  0  0  0  0  0
   -2.1303   -0.5877   -0.5628 H   0  0  0  0  0  0  0  0  0  0  0  0
  2  8  1  0  0  0  0
  2  1  1  0  0  0  0
  3  6  1  0  0  0  0
  3  2  1  0  0  0  0
  4  3  1  0  0  0  0
  5  3  1  0  0  0  0
  7  2  1  0  0  0  0
M  END
$$$$
