0 1 ClCLClRCl
 OpenBabel07282316283D

  5  4  0  0  0  0  0  0  0  0999 V2000
    0.0000    0.0000    0.0000 Cl  0  0  0  0  0  0  0  0  0  0  0  0
    1.0486    1.0815   -0.9462 C   0  0  0  0  0  0  0  0  0  0  0  0
    0.0142    2.1320   -1.9257 Cl  0  0  0  0  0  0  0  0  0  0  0  0
    2.2029    1.9710    0.0959 Cl  0  0  0  0  0  0  0  0  0  0  0  0
    1.6977    0.4655   -1.6012 H   0  0  0  0  0  0  0  0  0  0  0  0
  2  1  1  0  0  0  0
  2  4  1  0  0  0  0
  3  2  1  0  0  0  0
  5  2  1  0  0  0  0
M  END
$$$$
