0 1 CMNH2+QC
 OpenBabel07282316363D

 11 10  0  0  0  0  0  0  0  0999 V2000
    0.0000    0.0000    0.0000 C   0  0  0  0  0  0  0  0  0  0  0  0
   -0.7412   -0.5599   -1.1943 N   0  3  0  0  0  0  0  0  0  0  0  0
   -1.6822   -0.1220   -1.2863 H   0  0  0  0  0  0  0  0  0  0  0  0
   -0.1701   -0.2493   -2.0086 H   0  0  0  0  0  0  0  0  0  0  0  0
   -0.7755   -1.9844   -1.3049 C   0  0  0  0  0  0  0  0  0  0  0  0
    1.0700   -0.2141   -0.1608 H   0  0  0  0  0  0  0  0  0  0  0  0
   -0.3029   -0.4296    0.9697 H   0  0  0  0  0  0  0  0  0  0  0  0
   -0.1377    1.0936    0.0414 H   0  0  0  0  0  0  0  0  0  0  0  0
    0.1024   -2.5144   -0.8987 H   0  0  0  0  0  0  0  0  0  0  0  0
   -0.8665   -2.2249   -2.3775 H   0  0  0  0  0  0  0  0  0  0  0  0
   -1.6777   -2.3481   -0.7850 H   0  0  0  0  0  0  0  0  0  0  0  0
  1  8  1  0  0  0  0
  1  7  1  0  0  0  0
  2  1  1  0  0  0  0
  3  2  1  0  0  0  0
  4  2  1  0  0  0  0
  5  2  1  0  0  0  0
  5  9  1  0  0  0  0
  5 11  1  0  0  0  0
  6  1  1  0  0  0  0
 10  5  1  0  0  0  0
M  END
$$$$
