0 1 CMNH+QLCRC
 OpenBabel07282316363D

 14 13  0  0  0  0  0  0  0  0999 V2000
    3.8387    2.9076   -0.5889 C   0  0  0  0  0  0  0  0  0  0  0  0
    2.8318    2.7540    0.4964 N   0  3  0  0  0  0  0  0  0  0  0  0
    2.9034    1.7764    0.8557 H   0  0  0  0  0  0  0  0  0  0  0  0
    3.1165    3.6713    1.6335 C   0  0  0  0  0  0  0  0  0  0  0  0
    1.4477    2.9421   -0.0180 C   0  0  0  0  0  0  0  0  0  0  0  0
    4.8564    2.7267   -0.2040 H   0  0  0  0  0  0  0  0  0  0  0  0
    3.7932    3.9320   -0.9953 H   0  0  0  0  0  0  0  0  0  0  0  0
    3.6404    2.1953   -1.4074 H   0  0  0  0  0  0  0  0  0  0  0  0
    3.0500    4.7180    1.2917 H   0  0  0  0  0  0  0  0  0  0  0  0
    2.3877    3.5200    2.4474 H   0  0  0  0  0  0  0  0  0  0  0  0
    4.1300    3.4949    2.0314 H   0  0  0  0  0  0  0  0  0  0  0  0
    1.3327    3.9675   -0.4078 H   0  0  0  0  0  0  0  0  0  0  0  0
    1.2354    2.2299   -0.8331 H   0  0  0  0  0  0  0  0  0  0  0  0
    0.7092    2.7865    0.7863 H   0  0  0  0  0  0  0  0  0  0  0  0
  1  6  1  0  0  0  0
  1  2  1  0  0  0  0
  2  3  1  0  0  0  0
  2  4  1  0  0  0  0
  4 11  1  0  0  0  0
  4 10  1  0  0  0  0
  5  2  1  0  0  0  0
  5 14  1  0  0  0  0
  7  1  1  0  0  0  0
  8  1  1  0  0  0  0
  9  4  1  0  0  0  0
 12  5  1  0  0  0  0
 13  5  1  0  0  0  0
M  END
$$$$
