0 1 CNC=O
 OpenBabel07282316283D

  9  8  0  0  0  0  0  0  0  0999 V2000
   -0.7343    1.5087    1.1440 C   0  0  0  0  0  0  0  0  0  0  0  0
   -1.0583    2.8666    1.5380 N   0  0  0  0  0  0  0  0  0  0  0  0
   -0.1673    3.6352    2.2094 C   0  0  0  0  0  0  0  0  0  0  0  0
    0.9518    3.2647    2.5321 O   0  0  0  0  0  0  0  0  0  0  0  0
    0.1391    1.4921    0.4705 H   0  0  0  0  0  0  0  0  0  0  0  0
   -1.5961    1.0701    0.6134 H   0  0  0  0  0  0  0  0  0  0  0  0
   -0.5101    0.8858    2.0262 H   0  0  0  0  0  0  0  0  0  0  0  0
   -1.9724    3.2667    1.3125 H   0  0  0  0  0  0  0  0  0  0  0  0
   -0.5631    4.6537    2.4412 H   0  0  0  0  0  0  0  0  0  0  0  0
  1  2  1  0  0  0  0
  1  7  1  0  0  0  0
  2  3  1  0  0  0  0
  3  9  1  0  0  0  0
  3  4  2  0  0  0  0
  5  1  1  0  0  0  0
  6  1  1  0  0  0  0
  8  2  1  0  0  0  0
M  END
$$$$
