0 1 CNCCN
 OpenBabel07282316283D

 15 14  0  0  0  0  0  0  0  0999 V2000
    0.0000    0.0000    0.0000 C   0  0  0  0  0  0  0  0  0  0  0  0
   -1.0508   -0.5729   -0.8574 N   0  0  0  0  0  0  0  0  0  0  0  0
   -0.8466   -0.5400   -2.2754 C   0  0  0  0  0  0  0  0  0  0  0  0
   -2.0171   -1.2022   -3.0239 C   0  0  0  0  0  0  0  0  0  0  0  0
   -1.8415   -1.4148   -4.4412 N   0  0  0  0  0  0  0  0  0  0  0  0
   -0.1712   -0.1415    1.0804 H   0  0  0  0  0  0  0  0  0  0  0  0
    0.0468    1.0818   -0.2101 H   0  0  0  0  0  0  0  0  0  0  0  0
    0.9707   -0.4521   -0.2646 H   0  0  0  0  0  0  0  0  0  0  0  0
   -1.3009   -1.5309   -0.5810 H   0  0  0  0  0  0  0  0  0  0  0  0
   -0.8721    0.4999   -2.6543 H   0  0  0  0  0  0  0  0  0  0  0  0
    0.1546   -0.9555   -2.5000 H   0  0  0  0  0  0  0  0  0  0  0  0
   -2.1875   -2.1825   -2.5389 H   0  0  0  0  0  0  0  0  0  0  0  0
   -2.8412   -0.5284   -2.7199 H   0  0  0  0  0  0  0  0  0  0  0  0
   -0.9671   -1.9019   -4.6666 H   0  0  0  0  0  0  0  0  0  0  0  0
   -1.8014   -0.5156   -4.9335 H   0  0  0  0  0  0  0  0  0  0  0  0
  1  6  1  0  0  0  0
  2  9  1  0  0  0  0
  2  1  1  0  0  0  0
  3  2  1  0  0  0  0
  4 13  1  0  0  0  0
  4 12  1  0  0  0  0
  4  3  1  0  0  0  0
  5  4  1  0  0  0  0
  7  1  1  0  0  0  0
  8  1  1  0  0  0  0
 10  3  1  0  0  0  0
 11  3  1  0  0  0  0
 14  5  1  0  0  0  0
 15  5  1  0  0  0  0
M  END
$$$$
