0 1 CNCCSC
 OpenBabel07282316283D

 17 16  0  0  0  0  0  0  0  0999 V2000
    0.0000    0.0000    0.0000 C   0  0  0  0  0  0  0  0  0  0  0  0
    0.0187    1.2602   -0.6668 N   0  0  0  0  0  0  0  0  0  0  0  0
   -0.9893    2.2458   -0.1238 C   0  0  0  0  0  0  0  0  0  0  0  0
   -0.2346    3.5628    0.0473 C   0  0  0  0  0  0  0  0  0  0  0  0
    1.0963    3.4811    1.2652 S   0  0  0  0  0  0  0  0  0  0  0  0
    0.1117    3.1720    2.7402 C   0  0  0  0  0  0  0  0  0  0  0  0
    0.7013   -0.6185   -0.5850 H   0  0  0  0  0  0  0  0  0  0  0  0
   -0.9858   -0.4947    0.0046 H   0  0  0  0  0  0  0  0  0  0  0  0
    0.3674    0.0620    1.0382 H   0  0  0  0  0  0  0  0  0  0  0  0
    0.9647    1.6210   -0.4891 H   0  0  0  0  0  0  0  0  0  0  0  0
   -1.8173    2.4000   -0.8422 H   0  0  0  0  0  0  0  0  0  0  0  0
   -1.4369    1.9914    0.8562 H   0  0  0  0  0  0  0  0  0  0  0  0
    0.1711    3.9088   -0.9228 H   0  0  0  0  0  0  0  0  0  0  0  0
   -0.8693    4.3730    0.4550 H   0  0  0  0  0  0  0  0  0  0  0  0
    0.6741    3.1896    3.6889 H   0  0  0  0  0  0  0  0  0  0  0  0
   -0.3140    2.1639    2.6022 H   0  0  0  0  0  0  0  0  0  0  0  0
   -0.7165    3.8973    2.8087 H   0  0  0  0  0  0  0  0  0  0  0  0
  1  8  1  0  0  0  0
  1  9  1  0  0  0  0
  2 10  1  0  0  0  0
  2  3  1  0  0  0  0
  2  1  1  0  0  0  0
  3  4  1  0  0  0  0
  3 12  1  0  0  0  0
  4 14  1  0  0  0  0
  4  5  1  0  0  0  0
  5  6  1  0  0  0  0
  6 17  1  0  0  0  0
  6 15  1  0  0  0  0
  7  1  1  0  0  0  0
 11  3  1  0  0  0  0
 13  4  1  0  0  0  0
 16  6  1  0  0  0  0
M  END
$$$$
