0 1 CNCC
 OpenBabel07282316283D

 13 12  0  0  0  0  0  0  0  0999 V2000
    3.4796    2.0596    1.1784 C   0  0  0  0  0  0  0  0  0  0  0  0
    2.5978    0.9097    0.9953 N   0  0  0  0  0  0  0  0  0  0  0  0
    2.8125   -0.1098    2.0188 C   0  0  0  0  0  0  0  0  0  0  0  0
    1.9430   -1.3290    1.7526 C   0  0  0  0  0  0  0  0  0  0  0  0
    3.1972    2.5705    2.1142 H   0  0  0  0  0  0  0  0  0  0  0  0
    3.3421    2.7617    0.3389 H   0  0  0  0  0  0  0  0  0  0  0  0
    4.5461    1.7844    1.2358 H   0  0  0  0  0  0  0  0  0  0  0  0
    2.7832    0.4902    0.0752 H   0  0  0  0  0  0  0  0  0  0  0  0
    3.8749   -0.4147    2.0800 H   0  0  0  0  0  0  0  0  0  0  0  0
    2.5353    0.3413    2.9909 H   0  0  0  0  0  0  0  0  0  0  0  0
    2.2018   -1.7804    0.7800 H   0  0  0  0  0  0  0  0  0  0  0  0
    0.8792   -1.0380    1.7335 H   0  0  0  0  0  0  0  0  0  0  0  0
    2.0864   -2.0866    2.5413 H   0  0  0  0  0  0  0  0  0  0  0  0
  1  7  1  0  0  0  0
  1  5  1  0  0  0  0
  2  1  1  0  0  0  0
  2  3  1  0  0  0  0
  3  9  1  0  0  0  0
  3 10  1  0  0  0  0
  4  3  1  0  0  0  0
  4 13  1  0  0  0  0
  6  1  1  0  0  0  0
  8  2  1  0  0  0  0
 11  4  1  0  0  0  0
 12  4  1  0  0  0  0
M  END
$$$$
