0 1 CNCCCN
 OpenBabel07282316283D

 18 17  0  0  0  0  0  0  0  0999 V2000
    0.0000    0.0000    0.0000 C   0  0  0  0  0  0  0  0  0  0  0  0
    1.3526   -0.4768   -0.0933 N   0  0  0  0  0  0  0  0  0  0  0  0
    2.2163    0.6129   -0.4697 C   0  0  0  0  0  0  0  0  0  0  0  0
    3.7101    0.2512   -0.2012 C   0  0  0  0  0  0  0  0  0  0  0  0
    4.5844    1.3457   -0.9215 C   0  0  0  0  0  0  0  0  0  0  0  0
    5.9025    1.4039   -0.4784 N   0  0  0  0  0  0  0  0  0  0  0  0
   -0.4978   -0.9151    0.3626 H   0  0  0  0  0  0  0  0  0  0  0  0
   -0.4762    0.3082   -0.9460 H   0  0  0  0  0  0  0  0  0  0  0  0
   -0.1478    0.7997    0.7451 H   0  0  0  0  0  0  0  0  0  0  0  0
    1.5909   -0.7366    0.8724 H   0  0  0  0  0  0  0  0  0  0  0  0
    2.0007    0.8099   -1.5374 H   0  0  0  0  0  0  0  0  0  0  0  0
    1.9104    1.5075    0.1061 H   0  0  0  0  0  0  0  0  0  0  0  0
    3.9218    0.2977    0.8843 H   0  0  0  0  0  0  0  0  0  0  0  0
    4.1114   -0.7078   -0.5817 H   0  0  0  0  0  0  0  0  0  0  0  0
    4.6521    1.0687   -1.9912 H   0  0  0  0  0  0  0  0  0  0  0  0
    4.1637    2.3680   -0.8645 H   0  0  0  0  0  0  0  0  0  0  0  0
    6.2581    2.2287   -0.9742 H   0  0  0  0  0  0  0  0  0  0  0  0
    5.8860    1.6550    0.5162 H   0  0  0  0  0  0  0  0  0  0  0  0
  1  7  1  0  0  0  0
  1  9  1  0  0  0  0
  2  1  1  0  0  0  0
  2 10  1  0  0  0  0
  3  4  1  0  0  0  0
  3  2  1  0  0  0  0
  3 12  1  0  0  0  0
  4 13  1  0  0  0  0
  5 16  1  0  0  0  0
  5  6  1  0  0  0  0
  5  4  1  0  0  0  0
  6 18  1  0  0  0  0
  8  1  1  0  0  0  0
 11  3  1  0  0  0  0
 14  4  1  0  0  0  0
 15  5  1  0  0  0  0
 17  6  1  0  0  0  0
M  END
$$$$
