0 1 CNCCO
 OpenBabel07282316283D

 14 13  0  0  0  0  0  0  0  0999 V2000
    0.0000    0.0000    0.0000 C   0  0  0  0  0  0  0  0  0  0  0  0
   -1.3162   -0.3656    0.5044 N   0  0  0  0  0  0  0  0  0  0  0  0
   -1.3105   -0.8627    1.8617 C   0  0  0  0  0  0  0  0  0  0  0  0
   -2.7011   -1.2881    2.3453 C   0  0  0  0  0  0  0  0  0  0  0  0
   -3.5955   -0.2015    2.4136 O   0  0  0  0  0  0  0  0  0  0  0  0
    0.5383   -0.9000   -0.3419 H   0  0  0  0  0  0  0  0  0  0  0  0
    0.6229    0.5199    0.7472 H   0  0  0  0  0  0  0  0  0  0  0  0
   -0.1475    0.6708   -0.8631 H   0  0  0  0  0  0  0  0  0  0  0  0
   -1.9412    0.4463    0.4208 H   0  0  0  0  0  0  0  0  0  0  0  0
   -0.5095   -1.6240    1.9271 H   0  0  0  0  0  0  0  0  0  0  0  0
   -0.9749    0.0284    2.4264 H   0  0  0  0  0  0  0  0  0  0  0  0
   -3.0064   -1.9088    1.4811 H   0  0  0  0  0  0  0  0  0  0  0  0
   -2.6691   -1.9442    3.2364 H   0  0  0  0  0  0  0  0  0  0  0  0
   -3.4375    0.3766    1.6382 H   0  0  0  0  0  0  0  0  0  0  0  0
  1  2  1  0  0  0  0
  1  7  1  0  0  0  0
  2  3  1  0  0  0  0
  3 10  1  0  0  0  0
  3  4  1  0  0  0  0
  3 11  1  0  0  0  0
  4  5  1  0  0  0  0
  4 13  1  0  0  0  0
  6  1  1  0  0  0  0
  8  1  1  0  0  0  0
  9  2  1  0  0  0  0
 12  4  1  0  0  0  0
 14  5  1  0  0  0  0
M  END
$$$$
