0 1 CNCCCL=ORO
 OpenBabel07282316283D

 16 15  0  0  0  0  0  0  0  0999 V2000
    0.0000    0.0000    0.0000 C   0  0  0  0  0  0  0  0  0  0  0  0
    1.1570   -0.0076    0.9803 N   0  0  0  0  0  0  0  0  0  0  0  0
    0.7899   -0.5828    2.2590 C   0  0  0  0  0  0  0  0  0  0  0  0
    1.9055   -0.4656    3.3084 C   0  0  0  0  0  0  0  0  0  0  0  0
    3.2334   -1.1262    2.9868 C   0  0  0  0  0  0  0  0  0  0  0  0
    3.2041   -2.2239    2.4097 O   0  0  0  0  0  0  0  0  0  0  0  0
    4.3582   -0.3292    3.3215 O   0  0  0  0  0  0  0  0  0  0  0  0
   -0.8961    0.5078    0.3947 H   0  0  0  0  0  0  0  0  0  0  0  0
   -0.2923   -1.0013   -0.3585 H   0  0  0  0  0  0  0  0  0  0  0  0
    0.3858    0.5809   -0.8546 H   0  0  0  0  0  0  0  0  0  0  0  0
    1.5143    0.9473    1.1124 H   0  0  0  0  0  0  0  0  0  0  0  0
    0.6287   -1.6631    2.0790 H   0  0  0  0  0  0  0  0  0  0  0  0
   -0.1238   -0.1814    2.7381 H   0  0  0  0  0  0  0  0  0  0  0  0
    1.5815   -0.8533    4.2933 H   0  0  0  0  0  0  0  0  0  0  0  0
    2.0709    0.6240    3.4135 H   0  0  0  0  0  0  0  0  0  0  0  0
    5.2149   -0.8232    3.2020 H   0  0  0  0  0  0  0  0  0  0  0  0
  1  8  1  0  0  0  0
  1  2  1  0  0  0  0
  2 11  1  0  0  0  0
  2  3  1  0  0  0  0
  3 13  1  0  0  0  0
  3  4  1  0  0  0  0
  4 15  1  0  0  0  0
  4 14  1  0  0  0  0
  5  4  1  0  0  0  0
  5  7  1  0  0  0  0
  6  5  2  0  0  0  0
  9  1  1  0  0  0  0
 10  1  1  0  0  0  0
 12  3  1  0  0  0  0
 16  7  1  0  0  0  0
M  END
$$$$
