0 1 CNCCCSC
 OpenBabel07282316283D

 20 19  0  0  0  0  0  0  0  0999 V2000
    0.0000    0.0000    0.0000 C   0  0  0  0  0  0  0  0  0  0  0  0
   -0.6170   -0.9149   -0.9763 N   0  0  0  0  0  0  0  0  0  0  0  0
    0.2153   -0.9448   -2.1576 C   0  0  0  0  0  0  0  0  0  0  0  0
   -0.3523   -1.9312   -3.2056 C   0  0  0  0  0  0  0  0  0  0  0  0
    0.5590   -2.1445   -4.4779 C   0  0  0  0  0  0  0  0  0  0  0  0
   -0.0516   -3.5120   -5.5377 S   0  0  0  0  0  0  0  0  0  0  0  0
   -1.5290   -2.8057   -6.3404 C   0  0  0  0  0  0  0  0  0  0  0  0
    0.0739    1.0328   -0.3802 H   0  0  0  0  0  0  0  0  0  0  0  0
    1.0029   -0.3300    0.3192 H   0  0  0  0  0  0  0  0  0  0  0  0
   -0.6679   -0.0048    0.8778 H   0  0  0  0  0  0  0  0  0  0  0  0
   -1.5145   -0.4583   -1.1832 H   0  0  0  0  0  0  0  0  0  0  0  0
    1.2314   -1.3064   -1.9083 H   0  0  0  0  0  0  0  0  0  0  0  0
    0.3182    0.0556   -2.6202 H   0  0  0  0  0  0  0  0  0  0  0  0
   -0.4539   -2.9169   -2.7121 H   0  0  0  0  0  0  0  0  0  0  0  0
   -1.3595   -1.6172   -3.5407 H   0  0  0  0  0  0  0  0  0  0  0  0
    0.5327   -1.1373   -4.9366 H   0  0  0  0  0  0  0  0  0  0  0  0
    1.5994   -2.3397   -4.1540 H   0  0  0  0  0  0  0  0  0  0  0  0
   -1.3832   -2.1154   -7.1882 H   0  0  0  0  0  0  0  0  0  0  0  0
   -2.1770   -2.3153   -5.5947 H   0  0  0  0  0  0  0  0  0  0  0  0
   -2.0391   -3.7119   -6.7082 H   0  0  0  0  0  0  0  0  0  0  0  0
  1  9  1  0  0  0  0
  1 10  1  0  0  0  0
  2  1  1  0  0  0  0
  3 12  1  0  0  0  0
  3  2  1  0  0  0  0
  4 14  1  0  0  0  0
  4  3  1  0  0  0  0
  5 17  1  0  0  0  0
  5  4  1  0  0  0  0
  6  5  1  0  0  0  0
  7 19  1  0  0  0  0
  7  6  1  0  0  0  0
  8  1  1  0  0  0  0
 11  2  1  0  0  0  0
 13  3  1  0  0  0  0
 15  4  1  0  0  0  0
 16  5  1  0  0  0  0
 18  7  1  0  0  0  0
 20  7  1  0  0  0  0
M  END
$$$$
