0 1 CNCCNC
 OpenBabel07282316283D

 18 17  0  0  0  0  0  0  0  0999 V2000
    0.0000    0.0000    0.0000 C   0  0  0  0  0  0  0  0  0  0  0  0
   -0.8369    1.0686   -0.5903 N   0  0  0  0  0  0  0  0  0  0  0  0
   -1.9503    1.4934    0.3703 C   0  0  0  0  0  0  0  0  0  0  0  0
   -2.6655    2.6986   -0.2312 C   0  0  0  0  0  0  0  0  0  0  0  0
   -3.2932    2.3127   -1.5166 N   0  0  0  0  0  0  0  0  0  0  0  0
   -3.4887    3.3969   -2.4235 C   0  0  0  0  0  0  0  0  0  0  0  0
    0.6817   -0.5396   -0.6787 H   0  0  0  0  0  0  0  0  0  0  0  0
   -0.6393   -0.7366    0.5151 H   0  0  0  0  0  0  0  0  0  0  0  0
    0.6033    0.5314    0.7552 H   0  0  0  0  0  0  0  0  0  0  0  0
   -0.2832    1.8606   -0.9408 H   0  0  0  0  0  0  0  0  0  0  0  0
   -1.5645    1.8101    1.3584 H   0  0  0  0  0  0  0  0  0  0  0  0
   -2.5245    0.5584    0.5171 H   0  0  0  0  0  0  0  0  0  0  0  0
   -3.3617    3.1290    0.5142 H   0  0  0  0  0  0  0  0  0  0  0  0
   -1.9065    3.4692   -0.4670 H   0  0  0  0  0  0  0  0  0  0  0  0
   -2.6656    1.6292   -1.9591 H   0  0  0  0  0  0  0  0  0  0  0  0
   -2.5243    3.7585   -2.8182 H   0  0  0  0  0  0  0  0  0  0  0  0
   -4.0306    4.2505   -1.9825 H   0  0  0  0  0  0  0  0  0  0  0  0
   -4.0842    2.9972   -3.2615 H   0  0  0  0  0  0  0  0  0  0  0  0
  1  8  1  0  0  0  0
  1  9  1  0  0  0  0
  2  1  1  0  0  0  0
  2  3  1  0  0  0  0
  3 12  1  0  0  0  0
  3 11  1  0  0  0  0
  4  3  1  0  0  0  0
  4 13  1  0  0  0  0
  5  4  1  0  0  0  0
  6 17  1  0  0  0  0
  6  5  1  0  0  0  0
  7  1  1  0  0  0  0
 10  2  1  0  0  0  0
 14  4  1  0  0  0  0
 15  5  1  0  0  0  0
 16  6  1  0  0  0  0
 18  6  1  0  0  0  0
M  END
$$$$
