0 1 CNCCCNC
 OpenBabel07282316283D

 21 20  0  0  0  0  0  0  0  0999 V2000
    0.0000    0.0000    0.0000 C   0  0  0  0  0  0  0  0  0  0  0  0
   -1.0872   -0.9901   -0.3364 N   0  0  0  0  0  0  0  0  0  0  0  0
   -2.4646   -0.6559    0.1244 C   0  0  0  0  0  0  0  0  0  0  0  0
   -2.4899   -0.6515    1.6739 C   0  0  0  0  0  0  0  0  0  0  0  0
   -3.6470    0.1380    2.2536 C   0  0  0  0  0  0  0  0  0  0  0  0
   -3.3757    0.2297    3.6919 N   0  0  0  0  0  0  0  0  0  0  0  0
   -4.3083    1.2011    4.2470 C   0  0  0  0  0  0  0  0  0  0  0  0
    0.2025    0.0648    1.0823 H   0  0  0  0  0  0  0  0  0  0  0  0
   -0.2595    1.0061   -0.3702 H   0  0  0  0  0  0  0  0  0  0  0  0
    0.9181   -0.3366   -0.5102 H   0  0  0  0  0  0  0  0  0  0  0  0
   -1.2079   -1.1309   -1.3476 H   0  0  0  0  0  0  0  0  0  0  0  0
   -2.7477    0.3065   -0.3436 H   0  0  0  0  0  0  0  0  0  0  0  0
   -3.1641   -1.4294   -0.2469 H   0  0  0  0  0  0  0  0  0  0  0  0
   -1.6250   -0.1619    2.1615 H   0  0  0  0  0  0  0  0  0  0  0  0
   -2.5677   -1.6787    2.0792 H   0  0  0  0  0  0  0  0  0  0  0  0
   -3.7503    1.1424    1.7997 H   0  0  0  0  0  0  0  0  0  0  0  0
   -4.5518   -0.4439    1.9926 H   0  0  0  0  0  0  0  0  0  0  0  0
   -3.7216   -0.6889    3.9973 H   0  0  0  0  0  0  0  0  0  0  0  0
   -4.0133    2.2010    3.8866 H   0  0  0  0  0  0  0  0  0  0  0  0
   -4.2348    1.1879    5.3474 H   0  0  0  0  0  0  0  0  0  0  0  0
   -5.3585    1.0203    3.9623 H   0  0  0  0  0  0  0  0  0  0  0  0
  1  8  1  0  0  0  0
  2  1  1  0  0  0  0
  2  3  1  0  0  0  0
  3  4  1  0  0  0  0
  4 15  1  0  0  0  0
  4 14  1  0  0  0  0
  4  5  1  0  0  0  0
  5  6  1  0  0  0  0
  6 18  1  0  0  0  0
  6  7  1  0  0  0  0
  7 20  1  0  0  0  0
  9  1  1  0  0  0  0
 10  1  1  0  0  0  0
 11  2  1  0  0  0  0
 12  3  1  0  0  0  0
 13  3  1  0  0  0  0
 16  5  1  0  0  0  0
 17  5  1  0  0  0  0
 19  7  1  0  0  0  0
 21  7  1  0  0  0  0
M  END
$$$$
