0 1 CNCL=ORCCL=ORO
 OpenBabel07282316283D

 15 14  0  0  0  0  0  0  0  0999 V2000
    0.0000    0.0000    0.0000 C   0  0  0  0  0  0  0  0  0  0  0  0
    0.2613    0.8929   -1.0947 N   0  0  0  0  0  0  0  0  0  0  0  0
   -0.7137    1.4800   -1.8277 C   0  0  0  0  0  0  0  0  0  0  0  0
   -1.9082    1.0718   -1.8944 O   0  0  0  0  0  0  0  0  0  0  0  0
   -0.2305    2.7149   -2.8000 C   0  0  0  0  0  0  0  0  0  0  0  0
   -0.8898    2.5495   -4.1425 C   0  0  0  0  0  0  0  0  0  0  0  0
   -1.9200    3.0688   -4.5349 O   0  0  0  0  0  0  0  0  0  0  0  0
   -0.2692    1.5750   -4.9044 O   0  0  0  0  0  0  0  0  0  0  0  0
   -0.6714    0.5289    0.6972 H   0  0  0  0  0  0  0  0  0  0  0  0
    0.8857   -0.3462    0.5589 H   0  0  0  0  0  0  0  0  0  0  0  0
   -0.5305   -0.8808   -0.3992 H   0  0  0  0  0  0  0  0  0  0  0  0
    1.2224    1.2201   -1.2204 H   0  0  0  0  0  0  0  0  0  0  0  0
   -0.6067    3.6315   -2.3062 H   0  0  0  0  0  0  0  0  0  0  0  0
    0.8657    2.8194   -2.9135 H   0  0  0  0  0  0  0  0  0  0  0  0
    0.7047    1.4426   -4.7434 H   0  0  0  0  0  0  0  0  0  0  0  0
  1 10  1  0  0  0  0
  1  9  1  0  0  0  0
  2  1  1  0  0  0  0
  3  2  1  0  0  0  0
  4  3  2  0  0  0  0
  5 13  1  0  0  0  0
  5  3  1  0  0  0  0
  6  5  1  0  0  0  0
  7  6  2  0  0  0  0
  8 15  1  0  0  0  0
  8  6  1  0  0  0  0
 11  1  1  0  0  0  0
 12  2  1  0  0  0  0
 14  5  1  0  0  0  0
M  END
$$$$
