0 1 CNCL=ORCO
 OpenBabel07282316283D

 13 12  0  0  0  0  0  0  0  0999 V2000
    0.0000    0.0000    0.0000 C   0  0  0  0  0  0  0  0  0  0  0  0
    0.7507    0.0400    1.2525 N   0  0  0  0  0  0  0  0  0  0  0  0
    2.0904   -0.0811    1.3764 C   0  0  0  0  0  0  0  0  0  0  0  0
    2.8329   -0.0649    0.3982 O   0  0  0  0  0  0  0  0  0  0  0  0
    2.5655   -0.0774    2.8106 C   0  0  0  0  0  0  0  0  0  0  0  0
    3.9074   -0.5116    2.8690 O   0  0  0  0  0  0  0  0  0  0  0  0
    0.3982    0.7481   -0.7060 H   0  0  0  0  0  0  0  0  0  0  0  0
   -1.0705    0.2076    0.1660 H   0  0  0  0  0  0  0  0  0  0  0  0
    0.0980   -1.0001   -0.4549 H   0  0  0  0  0  0  0  0  0  0  0  0
    0.1558    0.0295    2.0847 H   0  0  0  0  0  0  0  0  0  0  0  0
    2.4768    0.9977    3.0588 H   0  0  0  0  0  0  0  0  0  0  0  0
    1.9296   -0.6403    3.5206 H   0  0  0  0  0  0  0  0  0  0  0  0
    4.3373   -0.0604    2.1127 H   0  0  0  0  0  0  0  0  0  0  0  0
  1  8  1  0  0  0  0
  1  2  1  0  0  0  0
  2  3  1  0  0  0  0
  2 10  1  0  0  0  0
  3  5  1  0  0  0  0
  4  3  2  0  0  0  0
  5  6  1  0  0  0  0
  5 11  1  0  0  0  0
  5 12  1  0  0  0  0
  7  1  1  0  0  0  0
  9  1  1  0  0  0  0
 13  6  1  0  0  0  0
M  END
$$$$
