0 1 CNCL=MNH2+QRN
 OpenBabel07282316363D

 13 12  0  0  0  0  0  0  0  0999 V2000
    5.5882   -0.2442    3.2559 C   0  0  0  0  0  0  0  0  0  0  0  0
    4.1704   -0.0121    3.5125 N   0  0  0  0  0  0  0  0  0  0  0  0
    3.4068    0.7947    2.7843 C   0  0  0  0  0  0  0  0  0  0  0  0
    2.1125    0.9554    3.0836 N   0  0  0  0  0  0  0  0  0  0  0  0
    1.7057    0.4550    3.8778 H   0  0  0  0  0  0  0  0  0  0  0  0
    1.5298    1.5782    2.5188 H   0  0  0  0  0  0  0  0  0  0  0  0
    3.9330    1.4497    1.7472 N   0  3  0  0  0  0  0  0  0  0  0  0
    5.9652   -0.9540    4.0112 H   0  0  0  0  0  0  0  0  0  0  0  0
    6.1680    0.6911    3.3316 H   0  0  0  0  0  0  0  0  0  0  0  0
    5.7490   -0.6777    2.2545 H   0  0  0  0  0  0  0  0  0  0  0  0
    3.7348   -0.4985    4.3000 H   0  0  0  0  0  0  0  0  0  0  0  0
    4.9221    1.3291    1.5156 H   0  0  0  0  0  0  0  0  0  0  0  0
    3.3480    2.0720    1.1840 H   0  0  0  0  0  0  0  0  0  0  0  0
  1  9  1  0  0  0  0
  1  2  1  0  0  0  0
  1  8  1  0  0  0  0
  2 11  1  0  0  0  0
  3  4  1  0  0  0  0
  3  2  1  0  0  0  0
  4  5  1  0  0  0  0
  6  4  1  0  0  0  0
  7  3  2  0  0  0  0
 10  1  1  0  0  0  0
 12  7  1  0  0  0  0
 13  7  1  0  0  0  0
M  END
$$$$
