0 1 CNCL=ORCNC=O
 OpenBabel07282316283D

 16 15  0  0  0  0  0  0  0  0999 V2000
    0.0000    0.0000    0.0000 C   0  0  0  0  0  0  0  0  0  0  0  0
    0.8283    0.0821   -1.1612 N   0  0  0  0  0  0  0  0  0  0  0  0
    2.1375    0.3251   -1.3338 C   0  0  0  0  0  0  0  0  0  0  0  0
    2.8914    0.5206   -0.4064 O   0  0  0  0  0  0  0  0  0  0  0  0
    2.6965    0.2257   -2.7784 C   0  0  0  0  0  0  0  0  0  0  0  0
    2.9513    1.5455   -3.3415 N   0  0  0  0  0  0  0  0  0  0  0  0
    4.1151    2.2586   -3.1128 C   0  0  0  0  0  0  0  0  0  0  0  0
    4.9588    1.8840   -2.3258 O   0  0  0  0  0  0  0  0  0  0  0  0
    0.4871   -0.5229    0.8402 H   0  0  0  0  0  0  0  0  0  0  0  0
   -0.8810   -0.5843   -0.3148 H   0  0  0  0  0  0  0  0  0  0  0  0
   -0.3406    0.9887    0.3509 H   0  0  0  0  0  0  0  0  0  0  0  0
    0.2418   -0.1596   -1.9638 H   0  0  0  0  0  0  0  0  0  0  0  0
    3.5862   -0.4312   -2.8263 H   0  0  0  0  0  0  0  0  0  0  0  0
    1.9128   -0.2219   -3.4195 H   0  0  0  0  0  0  0  0  0  0  0  0
    2.2745    1.8938   -4.0250 H   0  0  0  0  0  0  0  0  0  0  0  0
    4.2470    3.1303   -3.7988 H   0  0  0  0  0  0  0  0  0  0  0  0
  1 11  1  0  0  0  0
  1  9  1  0  0  0  0
  2  1  1  0  0  0  0
  3  2  1  0  0  0  0
  3  4  2  0  0  0  0
  5  3  1  0  0  0  0
  6  7  1  0  0  0  0
  6  5  1  0  0  0  0
  7  8  2  0  0  0  0
 10  1  1  0  0  0  0
 12  2  1  0  0  0  0
 13  5  1  0  0  0  0
 14  5  1  0  0  0  0
 15  6  1  0  0  0  0
 16  7  1  0  0  0  0
M  END
$$$$
