0 1 CNCL=ORCN
 OpenBabel07282316283D

 14 13  0  0  0  0  0  0  0  0999 V2000
    0.0000    0.0000    0.0000 C   0  0  0  0  0  0  0  0  0  0  0  0
   -0.0382   -1.1482   -0.8672 N   0  0  0  0  0  0  0  0  0  0  0  0
   -1.1023   -1.8863   -1.1676 C   0  0  0  0  0  0  0  0  0  0  0  0
   -2.2235   -1.4734   -0.9926 O   0  0  0  0  0  0  0  0  0  0  0  0
   -0.7560   -3.1676   -1.9876 C   0  0  0  0  0  0  0  0  0  0  0  0
    0.4760   -3.8900   -1.5434 N   0  0  0  0  0  0  0  0  0  0  0  0
   -0.2809   -0.3492    1.0079 H   0  0  0  0  0  0  0  0  0  0  0  0
   -0.7080    0.7871   -0.3097 H   0  0  0  0  0  0  0  0  0  0  0  0
    1.0119    0.4362    0.0482 H   0  0  0  0  0  0  0  0  0  0  0  0
    0.8966   -1.3856   -1.2082 H   0  0  0  0  0  0  0  0  0  0  0  0
   -1.6233   -3.8539   -1.9407 H   0  0  0  0  0  0  0  0  0  0  0  0
   -0.6171   -2.8724   -3.0454 H   0  0  0  0  0  0  0  0  0  0  0  0
    0.1827   -4.4986   -0.7712 H   0  0  0  0  0  0  0  0  0  0  0  0
    1.2048   -3.2770   -1.1615 H   0  0  0  0  0  0  0  0  0  0  0  0
  1  9  1  0  0  0  0
  1  7  1  0  0  0  0
  2  1  1  0  0  0  0
  3  4  2  0  0  0  0
  3  2  1  0  0  0  0
  5 11  1  0  0  0  0
  5  6  1  0  0  0  0
  5  3  1  0  0  0  0
  6 14  1  0  0  0  0
  6 13  1  0  0  0  0
  8  1  1  0  0  0  0
 10  2  1  0  0  0  0
 12  5  1  0  0  0  0
M  END
$$$$
