0 1 CNCL=ORCS
 OpenBabel07282316283D

 13 12  0  0  0  0  0  0  0  0999 V2000
    0.0000    0.0000    0.0000 C   0  0  0  0  0  0  0  0  0  0  0  0
    0.6321   -1.2989   -0.1487 N   0  0  0  0  0  0  0  0  0  0  0  0
    1.1027   -2.0356    0.8394 C   0  0  0  0  0  0  0  0  0  0  0  0
    1.4312   -1.5097    1.8598 O   0  0  0  0  0  0  0  0  0  0  0  0
    1.0338   -3.5529    0.7219 C   0  0  0  0  0  0  0  0  0  0  0  0
   -0.5864   -4.2445    0.4286 S   0  0  0  0  0  0  0  0  0  0  0  0
   -1.0971   -0.0584    0.0975 H   0  0  0  0  0  0  0  0  0  0  0  0
    0.2434    0.6780   -0.8353 H   0  0  0  0  0  0  0  0  0  0  0  0
    0.4137    0.4249    0.9300 H   0  0  0  0  0  0  0  0  0  0  0  0
    0.3739   -1.8459   -0.9737 H   0  0  0  0  0  0  0  0  0  0  0  0
    1.7342   -3.9148   -0.0552 H   0  0  0  0  0  0  0  0  0  0  0  0
    1.3642   -3.9694    1.6930 H   0  0  0  0  0  0  0  0  0  0  0  0
   -0.9747   -3.0521   -0.0713 H   0  0  0  0  0  0  0  0  0  0  0  0
  1  7  1  0  0  0  0
  1  9  1  0  0  0  0
  2  1  1  0  0  0  0
  2  3  1  0  0  0  0
  3  4  2  0  0  0  0
  5  3  1  0  0  0  0
  5 12  1  0  0  0  0
  6  5  1  0  0  0  0
  8  1  1  0  0  0  0
 10  2  1  0  0  0  0
 11  5  1  0  0  0  0
 13  6  1  0  0  0  0
M  END
$$$$
