0 1 CNCL=ORCOC=O
 OpenBabel07282316283D

 15 14  0  0  0  0  0  0  0  0999 V2000
    0.0000    0.0000    0.0000 C   0  0  0  0  0  0  0  0  0  0  0  0
    1.4360    0.1682    0.1012 N   0  0  0  0  0  0  0  0  0  0  0  0
    2.2203   -0.8686    0.2767 C   0  0  0  0  0  0  0  0  0  0  0  0
    1.7735   -2.0415    0.1396 O   0  0  0  0  0  0  0  0  0  0  0  0
    3.7318   -0.6781    0.5550 C   0  0  0  0  0  0  0  0  0  0  0  0
    4.3143   -1.7788    1.2339 O   0  0  0  0  0  0  0  0  0  0  0  0
    4.2363   -2.0461    2.5745 C   0  0  0  0  0  0  0  0  0  0  0  0
    3.4337   -1.4174    3.2973 O   0  0  0  0  0  0  0  0  0  0  0  0
   -0.2720   -0.9821   -0.4220 H   0  0  0  0  0  0  0  0  0  0  0  0
   -0.3602    0.7881   -0.6825 H   0  0  0  0  0  0  0  0  0  0  0  0
   -0.5072    0.1178    0.9723 H   0  0  0  0  0  0  0  0  0  0  0  0
    1.9038    1.0765    0.1537 H   0  0  0  0  0  0  0  0  0  0  0  0
    3.9801    0.3098    0.9882 H   0  0  0  0  0  0  0  0  0  0  0  0
    4.1978   -0.7326   -0.4477 H   0  0  0  0  0  0  0  0  0  0  0  0
    4.9557   -2.8184    2.9118 H   0  0  0  0  0  0  0  0  0  0  0  0
  1  2  1  0  0  0  0
  1 11  1  0  0  0  0
  2 12  1  0  0  0  0
  2  3  1  0  0  0  0
  3  5  1  0  0  0  0
  4  3  2  0  0  0  0
  5 13  1  0  0  0  0
  5  6  1  0  0  0  0
  6  7  1  0  0  0  0
  7 15  1  0  0  0  0
  7  8  2  0  0  0  0
  9  1  1  0  0  0  0
 10  1  1  0  0  0  0
 14  5  1  0  0  0  0
M  END
$$$$
