0 1 CNCOC
 OpenBabel07282316283D

 14 13  0  0  0  0  0  0  0  0999 V2000
    0.0000    0.0000    0.0000 C   0  0  0  0  0  0  0  0  0  0  0  0
    0.7540    0.6910    1.0680 N   0  0  0  0  0  0  0  0  0  0  0  0
   -0.0907    1.0401    2.2378 C   0  0  0  0  0  0  0  0  0  0  0  0
    0.4259    2.1770    2.8611 O   0  0  0  0  0  0  0  0  0  0  0  0
   -0.6646    2.8795    3.5318 C   0  0  0  0  0  0  0  0  0  0  0  0
    0.6954   -0.3484   -0.7821 H   0  0  0  0  0  0  0  0  0  0  0  0
   -0.6918    0.7342   -0.4461 H   0  0  0  0  0  0  0  0  0  0  0  0
   -0.5862   -0.8625    0.3593 H   0  0  0  0  0  0  0  0  0  0  0  0
    1.5036    0.0503    1.3583 H   0  0  0  0  0  0  0  0  0  0  0  0
   -1.0765    1.2159    1.7657 H   0  0  0  0  0  0  0  0  0  0  0  0
   -0.2198    0.2498    3.0022 H   0  0  0  0  0  0  0  0  0  0  0  0
   -1.3348    2.3444    4.2254 H   0  0  0  0  0  0  0  0  0  0  0  0
   -1.2761    3.5261    2.8802 H   0  0  0  0  0  0  0  0  0  0  0  0
    0.0157    3.5168    4.1214 H   0  0  0  0  0  0  0  0  0  0  0  0
  1  8  1  0  0  0  0
  1  2  1  0  0  0  0
  2  9  1  0  0  0  0
  2  3  1  0  0  0  0
  3  4  1  0  0  0  0
  3 11  1  0  0  0  0
  4  5  1  0  0  0  0
  5 14  1  0  0  0  0
  5 12  1  0  0  0  0
  6  1  1  0  0  0  0
  7  1  1  0  0  0  0
 10  3  1  0  0  0  0
 13  5  1  0  0  0  0
M  END
$$$$
