0 1 CNCSC
 OpenBabel07282316283D

 14 13  0  0  0  0  0  0  0  0999 V2000
    0.0000    0.0000    0.0000 C   0  0  0  0  0  0  0  0  0  0  0  0
   -1.2667    0.5927   -0.1089 N   0  0  0  0  0  0  0  0  0  0  0  0
   -1.6309    0.6049   -1.5303 C   0  0  0  0  0  0  0  0  0  0  0  0
   -3.0454    1.6810   -1.9327 S   0  0  0  0  0  0  0  0  0  0  0  0
   -2.3389    3.3487   -1.6724 C   0  0  0  0  0  0  0  0  0  0  0  0
    0.2774   -0.0499    1.0664 H   0  0  0  0  0  0  0  0  0  0  0  0
    0.6829    0.7010   -0.5088 H   0  0  0  0  0  0  0  0  0  0  0  0
    0.1287   -1.0013   -0.4443 H   0  0  0  0  0  0  0  0  0  0  0  0
   -1.9417   -0.0516    0.3225 H   0  0  0  0  0  0  0  0  0  0  0  0
   -0.8470    0.8469   -2.2735 H   0  0  0  0  0  0  0  0  0  0  0  0
   -1.9527   -0.4392   -1.7084 H   0  0  0  0  0  0  0  0  0  0  0  0
   -1.3395    3.4615   -2.1252 H   0  0  0  0  0  0  0  0  0  0  0  0
   -2.2398    3.4283   -0.5768 H   0  0  0  0  0  0  0  0  0  0  0  0
   -2.9813    4.1717   -2.0283 H   0  0  0  0  0  0  0  0  0  0  0  0
  1  6  1  0  0  0  0
  2  1  1  0  0  0  0
  2  9  1  0  0  0  0
  3  2  1  0  0  0  0
  4  5  1  0  0  0  0
  4  3  1  0  0  0  0
  5 13  1  0  0  0  0
  7  1  1  0  0  0  0
  8  1  1  0  0  0  0
 10  3  1  0  0  0  0
 11  3  1  0  0  0  0
 12  5  1  0  0  0  0
 14  5  1  0  0  0  0
M  END
$$$$
