0 1 CNLC=ORCC
 OpenBabel07282316283D

 15 14  0  0  0  0  0  0  0  0999 V2000
    0.0000    0.0000    0.0000 C   0  0  0  0  0  0  0  0  0  0  0  0
   -0.9692   -1.1012   -0.1814 N   0  0  0  0  0  0  0  0  0  0  0  0
   -0.7016   -2.0187   -1.1574 C   0  0  0  0  0  0  0  0  0  0  0  0
   -1.3086   -3.0778   -1.3016 O   0  0  0  0  0  0  0  0  0  0  0  0
   -2.1571   -1.1352    0.6193 C   0  0  0  0  0  0  0  0  0  0  0  0
   -3.2053   -0.2897   -0.1298 C   0  0  0  0  0  0  0  0  0  0  0  0
    0.4440    0.0436    1.0088 H   0  0  0  0  0  0  0  0  0  0  0  0
   -0.5646    0.9310   -0.1764 H   0  0  0  0  0  0  0  0  0  0  0  0
    0.8149   -0.0629   -0.7406 H   0  0  0  0  0  0  0  0  0  0  0  0
    0.1431   -1.6890   -1.8096 H   0  0  0  0  0  0  0  0  0  0  0  0
   -2.5423   -2.1711    0.6811 H   0  0  0  0  0  0  0  0  0  0  0  0
   -1.9550   -0.7891    1.6512 H   0  0  0  0  0  0  0  0  0  0  0  0
   -3.4840   -0.7244   -1.1045 H   0  0  0  0  0  0  0  0  0  0  0  0
   -2.8473    0.7407   -0.2935 H   0  0  0  0  0  0  0  0  0  0  0  0
   -4.1039   -0.2527    0.5087 H   0  0  0  0  0  0  0  0  0  0  0  0
  1  7  1  0  0  0  0
  2  1  1  0  0  0  0
  2  5  1  0  0  0  0
  3  2  1  0  0  0  0
  4  3  2  0  0  0  0
  5 11  1  0  0  0  0
  5 12  1  0  0  0  0
  6 15  1  0  0  0  0
  6  5  1  0  0  0  0
  8  1  1  0  0  0  0
  9  1  1  0  0  0  0
 10  3  1  0  0  0  0
 13  6  1  0  0  0  0
 14  6  1  0  0  0  0
M  END
$$$$
