0 1 CO
 OpenBabel07282316283D

  6  5  0  0  0  0  0  0  0  0999 V2000
    2.3156    0.1093   -0.2973 C   0  0  0  0  0  0  0  0  0  0  0  0
    1.3832    1.0113   -0.8852 O   0  0  0  0  0  0  0  0  0  0  0  0
    2.6348   -0.5797   -1.0973 H   0  0  0  0  0  0  0  0  0  0  0  0
    1.8652   -0.4822    0.5175 H   0  0  0  0  0  0  0  0  0  0  0  0
    3.2058    0.6287    0.0956 H   0  0  0  0  0  0  0  0  0  0  0  0
    1.0868    1.6335   -0.1885 H   0  0  0  0  0  0  0  0  0  0  0  0
  1  5  1  0  0  0  0
  1  4  1  0  0  0  0
  2  1  1  0  0  0  0
  2  6  1  0  0  0  0
  3  1  1  0  0  0  0
M  END
$$$$
