0 1 COC=O
 OpenBabel07282316283D

  8  7  0  0  0  0  0  0  0  0999 V2000
   -0.5525    2.3316    1.6432 C   0  0  0  0  0  0  0  0  0  0  0  0
   -1.3457    1.6444    2.6157 O   0  0  0  0  0  0  0  0  0  0  0  0
   -0.6867    0.7025    3.3231 C   0  0  0  0  0  0  0  0  0  0  0  0
   -1.2159    0.0412    4.1751 O   0  0  0  0  0  0  0  0  0  0  0  0
   -0.1507    1.6461    0.8781 H   0  0  0  0  0  0  0  0  0  0  0  0
    0.2888    2.8752    2.1051 H   0  0  0  0  0  0  0  0  0  0  0  0
   -1.2141    3.0623    1.1483 H   0  0  0  0  0  0  0  0  0  0  0  0
    0.3792    0.6082    3.0358 H   0  0  0  0  0  0  0  0  0  0  0  0
  1  6  1  0  0  0  0
  1  2  1  0  0  0  0
  2  3  1  0  0  0  0
  3  4  2  0  0  0  0
  5  1  1  0  0  0  0
  7  1  1  0  0  0  0
  8  3  1  0  0  0  0
M  END
$$$$
