0 1 COCCCS
 OpenBabel07282316283D

 16 15  0  0  0  0  0  0  0  0999 V2000
    0.0000    0.0000    0.0000 C   0  0  0  0  0  0  0  0  0  0  0  0
    0.4908   -0.1480    1.2715 O   0  0  0  0  0  0  0  0  0  0  0  0
    0.2422    0.9713    2.0911 C   0  0  0  0  0  0  0  0  0  0  0  0
    0.5152    0.6014    3.4838 C   0  0  0  0  0  0  0  0  0  0  0  0
    0.1540    1.6378    4.5260 C   0  0  0  0  0  0  0  0  0  0  0  0
    0.0467    0.7217    6.1195 S   0  0  0  0  0  0  0  0  0  0  0  0
   -0.0851   -0.9991   -0.4596 H   0  0  0  0  0  0  0  0  0  0  0  0
    0.6110    0.6395   -0.6590 H   0  0  0  0  0  0  0  0  0  0  0  0
   -1.0091    0.4383    0.0785 H   0  0  0  0  0  0  0  0  0  0  0  0
   -0.8162    1.2672    1.9579 H   0  0  0  0  0  0  0  0  0  0  0  0
    0.8712    1.8439    1.8295 H   0  0  0  0  0  0  0  0  0  0  0  0
   -0.1312   -0.2899    3.5988 H   0  0  0  0  0  0  0  0  0  0  0  0
    1.5548    0.2944    3.7084 H   0  0  0  0  0  0  0  0  0  0  0  0
   -0.8397    2.1069    4.3918 H   0  0  0  0  0  0  0  0  0  0  0  0
    0.8945    2.4500    4.6581 H   0  0  0  0  0  0  0  0  0  0  0  0
   -0.7618    1.6605    6.6558 H   0  0  0  0  0  0  0  0  0  0  0  0
  1  9  1  0  0  0  0
  1  2  1  0  0  0  0
  2  3  1  0  0  0  0
  3  4  1  0  0  0  0
  4 12  1  0  0  0  0
  4 13  1  0  0  0  0
  4  5  1  0  0  0  0
  5 15  1  0  0  0  0
  5  6  1  0  0  0  0
  6 16  1  0  0  0  0
  7  1  1  0  0  0  0
  8  1  1  0  0  0  0
 10  3  1  0  0  0  0
 11  3  1  0  0  0  0
 14  5  1  0  0  0  0
M  END
$$$$
