0 1 COCCL=ORO
 OpenBabel07282316283D

 12 11  0  0  0  0  0  0  0  0999 V2000
    0.0000    0.0000    0.0000 C   0  0  0  0  0  0  0  0  0  0  0  0
   -0.3246   -1.3658   -0.0875 O   0  0  0  0  0  0  0  0  0  0  0  0
   -1.5266   -1.4894   -0.8525 C   0  0  0  0  0  0  0  0  0  0  0  0
   -1.5972   -2.8296   -1.4264 C   0  0  0  0  0  0  0  0  0  0  0  0
   -1.6802   -3.1387   -2.6470 O   0  0  0  0  0  0  0  0  0  0  0  0
   -1.5106   -3.8222   -0.4587 O   0  0  0  0  0  0  0  0  0  0  0  0
    0.2786    0.3879   -0.9943 H   0  0  0  0  0  0  0  0  0  0  0  0
    0.8464    0.1585    0.6893 H   0  0  0  0  0  0  0  0  0  0  0  0
   -0.8672    0.5720    0.3705 H   0  0  0  0  0  0  0  0  0  0  0  0
   -2.4069   -1.1770   -0.2584 H   0  0  0  0  0  0  0  0  0  0  0  0
   -1.4059   -0.7655   -1.6813 H   0  0  0  0  0  0  0  0  0  0  0  0
   -1.6223   -4.6758   -0.9597 H   0  0  0  0  0  0  0  0  0  0  0  0
  1  9  1  0  0  0  0
  1  8  1  0  0  0  0
  2  1  1  0  0  0  0
  3 10  1  0  0  0  0
  3  2  1  0  0  0  0
  4  3  1  0  0  0  0
  4  6  1  0  0  0  0
  5  4  2  0  0  0  0
  7  1  1  0  0  0  0
 11  3  1  0  0  0  0
 12  6  1  0  0  0  0
M  END
$$$$
