0 1 COCCNC=O
 OpenBabel07282316283D

 16 15  0  0  0  0  0  0  0  0999 V2000
    0.0000    0.0000    0.0000 C   0  0  0  0  0  0  0  0  0  0  0  0
    1.3530   -0.0716   -0.4404 O   0  0  0  0  0  0  0  0  0  0  0  0
    2.1737    0.9263    0.0935 C   0  0  0  0  0  0  0  0  0  0  0  0
    3.6338    0.6730   -0.3375 C   0  0  0  0  0  0  0  0  0  0  0  0
    4.5295    1.8587   -0.0814 N   0  0  0  0  0  0  0  0  0  0  0  0
    4.5354    2.9167   -0.8225 C   0  0  0  0  0  0  0  0  0  0  0  0
    3.6561    3.2725   -1.7028 O   0  0  0  0  0  0  0  0  0  0  0  0
    0.0071   -0.0109    1.1029 H   0  0  0  0  0  0  0  0  0  0  0  0
   -0.5647   -0.8777   -0.3569 H   0  0  0  0  0  0  0  0  0  0  0  0
   -0.5174    0.9131   -0.3395 H   0  0  0  0  0  0  0  0  0  0  0  0
    1.8429    1.9093   -0.2934 H   0  0  0  0  0  0  0  0  0  0  0  0
    2.1334    0.9688    1.1989 H   0  0  0  0  0  0  0  0  0  0  0  0
    3.7212    0.5816   -1.4373 H   0  0  0  0  0  0  0  0  0  0  0  0
    4.0766   -0.2365    0.1121 H   0  0  0  0  0  0  0  0  0  0  0  0
    5.3083    1.6658    0.5534 H   0  0  0  0  0  0  0  0  0  0  0  0
    5.3816    3.5810   -0.5219 H   0  0  0  0  0  0  0  0  0  0  0  0
  1  8  1  0  0  0  0
  2  1  1  0  0  0  0
  2  3  1  0  0  0  0
  3 12  1  0  0  0  0
  4  5  1  0  0  0  0
  4  3  1  0  0  0  0
  4 14  1  0  0  0  0
  5 15  1  0  0  0  0
  6 16  1  0  0  0  0
  6  5  1  0  0  0  0
  7  6  2  0  0  0  0
  9  1  1  0  0  0  0
 10  1  1  0  0  0  0
 11  3  1  0  0  0  0
 13  4  1  0  0  0  0
M  END
$$$$
