0 1 COCCCOC=O
 OpenBabel07282316283D

 18 17  0  0  0  0  0  0  0  0999 V2000
    0.0000    0.0000    0.0000 C   0  0  0  0  0  0  0  0  0  0  0  0
   -0.1745   -1.4532    0.1112 O   0  0  0  0  0  0  0  0  0  0  0  0
   -1.3933   -1.8340   -0.5154 C   0  0  0  0  0  0  0  0  0  0  0  0
   -1.2490   -3.2860   -0.8187 C   0  0  0  0  0  0  0  0  0  0  0  0
   -0.6879   -3.4915   -2.2494 C   0  0  0  0  0  0  0  0  0  0  0  0
   -0.3106   -4.8995   -2.4030 O   0  0  0  0  0  0  0  0  0  0  0  0
   -0.3482   -5.4288   -3.6858 C   0  0  0  0  0  0  0  0  0  0  0  0
   -0.3446   -4.8053   -4.7227 O   0  0  0  0  0  0  0  0  0  0  0  0
    0.1667    0.3772   -1.0230 H   0  0  0  0  0  0  0  0  0  0  0  0
    0.8595    0.2915    0.6269 H   0  0  0  0  0  0  0  0  0  0  0  0
   -0.9089    0.4748    0.4063 H   0  0  0  0  0  0  0  0  0  0  0  0
   -1.5956   -1.2645   -1.4428 H   0  0  0  0  0  0  0  0  0  0  0  0
   -2.2887   -1.7543    0.1306 H   0  0  0  0  0  0  0  0  0  0  0  0
   -0.7241   -3.8557   -0.0278 H   0  0  0  0  0  0  0  0  0  0  0  0
   -2.2700   -3.7035   -0.9128 H   0  0  0  0  0  0  0  0  0  0  0  0
    0.1773   -2.8347   -2.4625 H   0  0  0  0  0  0  0  0  0  0  0  0
   -1.4503   -3.3081   -3.0308 H   0  0  0  0  0  0  0  0  0  0  0  0
   -0.4334   -6.5316   -3.6206 H   0  0  0  0  0  0  0  0  0  0  0  0
  1  2  1  0  0  0  0
  1 11  1  0  0  0  0
  1 10  1  0  0  0  0
  3  2  1  0  0  0  0
  3 13  1  0  0  0  0
  4  3  1  0  0  0  0
  4 14  1  0  0  0  0
  5  4  1  0  0  0  0
  6  5  1  0  0  0  0
  7 18  1  0  0  0  0
  7  6  1  0  0  0  0
  8  7  2  0  0  0  0
  9  1  1  0  0  0  0
 12  3  1  0  0  0  0
 15  4  1  0  0  0  0
 16  5  1  0  0  0  0
 17  5  1  0  0  0  0
M  END
$$$$
