0 1 COCCCO
 OpenBabel07282316283D

 16 15  0  0  0  0  0  0  0  0999 V2000
    0.0000    0.0000    0.0000 C   0  0  0  0  0  0  0  0  0  0  0  0
    0.7511    0.8980   -0.7881 O   0  0  0  0  0  0  0  0  0  0  0  0
    1.8454    1.4920   -0.0209 C   0  0  0  0  0  0  0  0  0  0  0  0
    2.4639    2.5109   -0.9795 C   0  0  0  0  0  0  0  0  0  0  0  0
    4.0318    2.6986   -0.8317 C   0  0  0  0  0  0  0  0  0  0  0  0
    4.4980    3.6887   -1.6414 O   0  0  0  0  0  0  0  0  0  0  0  0
    0.6738   -0.7295    0.4801 H   0  0  0  0  0  0  0  0  0  0  0  0
   -0.6944   -0.5448   -0.6615 H   0  0  0  0  0  0  0  0  0  0  0  0
   -0.5864    0.5068    0.7848 H   0  0  0  0  0  0  0  0  0  0  0  0
    1.5094    2.0097    0.8981 H   0  0  0  0  0  0  0  0  0  0  0  0
    2.6355    0.7724    0.2680 H   0  0  0  0  0  0  0  0  0  0  0  0
    2.3919    2.0901   -2.0009 H   0  0  0  0  0  0  0  0  0  0  0  0
    1.9417    3.4870   -0.9801 H   0  0  0  0  0  0  0  0  0  0  0  0
    4.2890    2.9929    0.2040 H   0  0  0  0  0  0  0  0  0  0  0  0
    4.5591    1.7508   -1.0531 H   0  0  0  0  0  0  0  0  0  0  0  0
    4.2964    4.5237   -1.1696 H   0  0  0  0  0  0  0  0  0  0  0  0
  1  7  1  0  0  0  0
  1  9  1  0  0  0  0
  2  3  1  0  0  0  0
  2  1  1  0  0  0  0
  3 11  1  0  0  0  0
  3 10  1  0  0  0  0
  4  5  1  0  0  0  0
  4  3  1  0  0  0  0
  5 14  1  0  0  0  0
  6 16  1  0  0  0  0
  6  5  1  0  0  0  0
  8  1  1  0  0  0  0
 12  4  1  0  0  0  0
 13  4  1  0  0  0  0
 15  5  1  0  0  0  0
M  END
$$$$
