0 1 CSC
 OpenBabel07282316283D

  9  8  0  0  0  0  0  0  0  0999 V2000
   -0.6065    1.2617    0.2170 C   0  0  0  0  0  0  0  0  0  0  0  0
    0.6195    2.4732    0.7376 S   0  0  0  0  0  0  0  0  0  0  0  0
    2.0831    1.4341    0.5958 C   0  0  0  0  0  0  0  0  0  0  0  0
   -1.5977    1.7448    0.2452 H   0  0  0  0  0  0  0  0  0  0  0  0
   -0.6216    0.3881    0.8901 H   0  0  0  0  0  0  0  0  0  0  0  0
   -0.4155    0.9106   -0.8110 H   0  0  0  0  0  0  0  0  0  0  0  0
    2.0217    0.5575    1.2624 H   0  0  0  0  0  0  0  0  0  0  0  0
    2.2278    1.0800   -0.4387 H   0  0  0  0  0  0  0  0  0  0  0  0
    2.9596    2.0369    0.8871 H   0  0  0  0  0  0  0  0  0  0  0  0
  1  4  1  0  0  0  0
  1  2  1  0  0  0  0
  1  5  1  0  0  0  0
  3  2  1  0  0  0  0
  3  9  1  0  0  0  0
  3  7  1  0  0  0  0
  6  1  1  0  0  0  0
  8  3  1  0  0  0  0
M  END
$$$$
