0 1 CSCCCOC=O
 OpenBabel07282316283D

 18 17  0  0  0  0  0  0  0  0999 V2000
    0.0000    0.0000    0.0000 C   0  0  0  0  0  0  0  0  0  0  0  0
   -0.2001    1.6867    0.5338 S   0  0  0  0  0  0  0  0  0  0  0  0
   -0.3686    1.6297    2.2830 C   0  0  0  0  0  0  0  0  0  0  0  0
    0.9223    1.1907    3.0008 C   0  0  0  0  0  0  0  0  0  0  0  0
    0.7818    1.2504    4.4981 C   0  0  0  0  0  0  0  0  0  0  0  0
   -0.3224    0.3639    4.9248 O   0  0  0  0  0  0  0  0  0  0  0  0
   -0.0408   -0.9107    5.3335 C   0  0  0  0  0  0  0  0  0  0  0  0
    1.0517   -1.4208    5.4850 O   0  0  0  0  0  0  0  0  0  0  0  0
   -0.7506   -0.6478    0.4833 H   0  0  0  0  0  0  0  0  0  0  0  0
    1.0046   -0.3347    0.3088 H   0  0  0  0  0  0  0  0  0  0  0  0
   -0.0883   -0.1144   -1.0935 H   0  0  0  0  0  0  0  0  0  0  0  0
   -0.6006    2.6741    2.5674 H   0  0  0  0  0  0  0  0  0  0  0  0
   -1.2032    0.9923    2.6331 H   0  0  0  0  0  0  0  0  0  0  0  0
    1.2181    0.1405    2.8136 H   0  0  0  0  0  0  0  0  0  0  0  0
    1.7078    1.8429    2.5729 H   0  0  0  0  0  0  0  0  0  0  0  0
    1.6354    1.0341    5.1690 H   0  0  0  0  0  0  0  0  0  0  0  0
    0.4291    2.2755    4.7220 H   0  0  0  0  0  0  0  0  0  0  0  0
   -0.9907   -1.3960    5.6333 H   0  0  0  0  0  0  0  0  0  0  0  0
  1 10  1  0  0  0  0
  1  9  1  0  0  0  0
  1  2  1  0  0  0  0
  2  3  1  0  0  0  0
  3 12  1  0  0  0  0
  3 13  1  0  0  0  0
  3  4  1  0  0  0  0
  4  5  1  0  0  0  0
  5 17  1  0  0  0  0
  5  6  1  0  0  0  0
  5 16  1  0  0  0  0
  6  7  1  0  0  0  0
  7  8  2  0  0  0  0
  7 18  1  0  0  0  0
 11  1  1  0  0  0  0
 14  4  1  0  0  0  0
 15  4  1  0  0  0  0
M  END
$$$$
