0 1 CSCCSC
 OpenBabel07282316283D

 16 15  0  0  0  0  0  0  0  0999 V2000
    0.0000    0.0000    0.0000 C   0  0  0  0  0  0  0  0  0  0  0  0
    0.9802    1.1621    0.9619 S   0  0  0  0  0  0  0  0  0  0  0  0
    2.5333    0.3280    1.3014 C   0  0  0  0  0  0  0  0  0  0  0  0
    3.5434    1.0206    2.2484 C   0  0  0  0  0  0  0  0  0  0  0  0
    4.1619    2.5759    1.5294 S   0  0  0  0  0  0  0  0  0  0  0  0
    4.9664    3.0428    3.1541 C   0  0  0  0  0  0  0  0  0  0  0  0
   -0.3880   -0.8764    0.5459 H   0  0  0  0  0  0  0  0  0  0  0  0
    0.5811   -0.3550   -0.8677 H   0  0  0  0  0  0  0  0  0  0  0  0
   -0.8548    0.5923   -0.3675 H   0  0  0  0  0  0  0  0  0  0  0  0
    2.8981    0.1636    0.2692 H   0  0  0  0  0  0  0  0  0  0  0  0
    2.2389   -0.6557    1.7150 H   0  0  0  0  0  0  0  0  0  0  0  0
    3.1063    1.3353    3.2155 H   0  0  0  0  0  0  0  0  0  0  0  0
    4.4301    0.3952    2.4674 H   0  0  0  0  0  0  0  0  0  0  0  0
    5.5194    3.9884    3.0255 H   0  0  0  0  0  0  0  0  0  0  0  0
    5.6854    2.2470    3.4116 H   0  0  0  0  0  0  0  0  0  0  0  0
    4.2575    3.1607    3.9909 H   0  0  0  0  0  0  0  0  0  0  0  0
  1  7  1  0  0  0  0
  1  2  1  0  0  0  0
  2  3  1  0  0  0  0
  3 11  1  0  0  0  0
  3  4  1  0  0  0  0
  4 13  1  0  0  0  0
  4 12  1  0  0  0  0
  5  4  1  0  0  0  0
  5  6  1  0  0  0  0
  6 15  1  0  0  0  0
  6 16  1  0  0  0  0
  8  1  1  0  0  0  0
  9  1  1  0  0  0  0
 10  3  1  0  0  0  0
 14  6  1  0  0  0  0
M  END
$$$$
