0 1 CSCCCL=ORO
 OpenBabel07282316283D

 15 14  0  0  0  0  0  0  0  0999 V2000
    0.0000    0.0000    0.0000 C   0  0  0  0  0  0  0  0  0  0  0  0
    0.1301   -0.6685   -1.6541 S   0  0  0  0  0  0  0  0  0  0  0  0
    0.7037   -2.2851   -1.2269 C   0  0  0  0  0  0  0  0  0  0  0  0
    0.8113   -3.1116   -2.5322 C   0  0  0  0  0  0  0  0  0  0  0  0
    0.8487   -4.6414   -2.4523 C   0  0  0  0  0  0  0  0  0  0  0  0
    0.6249   -5.2584   -1.4138 O   0  0  0  0  0  0  0  0  0  0  0  0
    1.0816   -5.2232   -3.6115 O   0  0  0  0  0  0  0  0  0  0  0  0
   -0.1345    1.0790   -0.1852 H   0  0  0  0  0  0  0  0  0  0  0  0
    0.9321   -0.1454    0.5716 H   0  0  0  0  0  0  0  0  0  0  0  0
   -0.8460   -0.3606    0.6090 H   0  0  0  0  0  0  0  0  0  0  0  0
    1.6705   -2.2332   -0.6902 H   0  0  0  0  0  0  0  0  0  0  0  0
   -0.0444   -2.7129   -0.5321 H   0  0  0  0  0  0  0  0  0  0  0  0
   -0.0991   -2.9588   -3.1432 H   0  0  0  0  0  0  0  0  0  0  0  0
    1.6795   -2.7788   -3.1330 H   0  0  0  0  0  0  0  0  0  0  0  0
    1.1039   -4.6086   -4.3950 H   0  0  0  0  0  0  0  0  0  0  0  0
  1  9  1  0  0  0  0
  1 10  1  0  0  0  0
  2  3  1  0  0  0  0
  2  1  1  0  0  0  0
  3 11  1  0  0  0  0
  3 12  1  0  0  0  0
  4  5  1  0  0  0  0
  4  3  1  0  0  0  0
  5  6  2  0  0  0  0
  7  5  1  0  0  0  0
  8  1  1  0  0  0  0
 13  4  1  0  0  0  0
 14  4  1  0  0  0  0
 15  7  1  0  0  0  0
M  END
$$$$
