0 1 CSCC
 OpenBabel07282316283D

 12 11  0  0  0  0  0  0  0  0999 V2000
    4.4208   -0.4256    0.8247 C   0  0  0  0  0  0  0  0  0  0  0  0
    3.7052   -0.8399    2.4249 S   0  0  0  0  0  0  0  0  0  0  0  0
    4.0564    0.7116    3.2894 C   0  0  0  0  0  0  0  0  0  0  0  0
    3.5381    0.6339    4.7202 C   0  0  0  0  0  0  0  0  0  0  0  0
    3.9205    0.4472    0.3725 H   0  0  0  0  0  0  0  0  0  0  0  0
    4.2874   -1.2929    0.1564 H   0  0  0  0  0  0  0  0  0  0  0  0
    5.4990   -0.2087    0.9085 H   0  0  0  0  0  0  0  0  0  0  0  0
    5.1490    0.8887    3.2758 H   0  0  0  0  0  0  0  0  0  0  0  0
    3.5738    1.5433    2.7408 H   0  0  0  0  0  0  0  0  0  0  0  0
    3.7504    1.5777    5.2502 H   0  0  0  0  0  0  0  0  0  0  0  0
    2.4484    0.4637    4.7275 H   0  0  0  0  0  0  0  0  0  0  0  0
    4.0269   -0.1922    5.2636 H   0  0  0  0  0  0  0  0  0  0  0  0
  1  7  1  0  0  0  0
  1  2  1  0  0  0  0
  2  3  1  0  0  0  0
  3  4  1  0  0  0  0
  4 11  1  0  0  0  0
  4 10  1  0  0  0  0
  4 12  1  0  0  0  0
  5  1  1  0  0  0  0
  6  1  1  0  0  0  0
  8  3  1  0  0  0  0
  9  3  1  0  0  0  0
M  END
$$$$
