0 1 CSCCS
 OpenBabel07282316283D

 13 12  0  0  0  0  0  0  0  0999 V2000
    0.0000    0.0000    0.0000 C   0  0  0  0  0  0  0  0  0  0  0  0
   -0.9195    1.4190    0.6833 S   0  0  0  0  0  0  0  0  0  0  0  0
    0.2637    1.9724    1.8806 C   0  0  0  0  0  0  0  0  0  0  0  0
   -0.3503    3.2520    2.5312 C   0  0  0  0  0  0  0  0  0  0  0  0
    0.3627    3.6028    4.1523 S   0  0  0  0  0  0  0  0  0  0  0  0
    0.4527    0.2722   -0.9683 H   0  0  0  0  0  0  0  0  0  0  0  0
   -0.7205   -0.8184   -0.1662 H   0  0  0  0  0  0  0  0  0  0  0  0
    0.7965   -0.3633    0.6710 H   0  0  0  0  0  0  0  0  0  0  0  0
    1.3192    2.1739    1.6145 H   0  0  0  0  0  0  0  0  0  0  0  0
    0.2601    1.2499    2.7193 H   0  0  0  0  0  0  0  0  0  0  0  0
   -1.4497    3.1872    2.6432 H   0  0  0  0  0  0  0  0  0  0  0  0
   -0.1313    4.0849    1.8357 H   0  0  0  0  0  0  0  0  0  0  0  0
    0.5034    2.2775    4.3675 H   0  0  0  0  0  0  0  0  0  0  0  0
  1  8  1  0  0  0  0
  1  2  1  0  0  0  0
  2  3  1  0  0  0  0
  3  4  1  0  0  0  0
  3 10  1  0  0  0  0
  4 11  1  0  0  0  0
  4  5  1  0  0  0  0
  5 13  1  0  0  0  0
  6  1  1  0  0  0  0
  7  1  1  0  0  0  0
  9  3  1  0  0  0  0
 12  4  1  0  0  0  0
M  END
$$$$
