0 1 CSCCCNC=O
 OpenBabel07282316283D

 19 18  0  0  0  0  0  0  0  0999 V2000
    0.0000    0.0000    0.0000 C   0  0  0  0  0  0  0  0  0  0  0  0
    1.1991    0.2485    1.3365 S   0  0  0  0  0  0  0  0  0  0  0  0
    1.6682    1.9789    1.0936 C   0  0  0  0  0  0  0  0  0  0  0  0
    2.8748    2.0785    0.1177 C   0  0  0  0  0  0  0  0  0  0  0  0
    3.2488    3.4734   -0.4608 C   0  0  0  0  0  0  0  0  0  0  0  0
    2.1697    3.9910   -1.2826 N   0  0  0  0  0  0  0  0  0  0  0  0
    2.0766    3.6744   -2.5912 C   0  0  0  0  0  0  0  0  0  0  0  0
    2.7909    2.8700   -3.1811 O   0  0  0  0  0  0  0  0  0  0  0  0
   -0.6331   -0.8132    0.3931 H   0  0  0  0  0  0  0  0  0  0  0  0
    0.3440   -0.2789   -1.0102 H   0  0  0  0  0  0  0  0  0  0  0  0
   -0.6105    0.9155   -0.0766 H   0  0  0  0  0  0  0  0  0  0  0  0
    1.9289    2.4829    2.0441 H   0  0  0  0  0  0  0  0  0  0  0  0
    0.8760    2.5760    0.6023 H   0  0  0  0  0  0  0  0  0  0  0  0
    2.7548    1.3930   -0.7433 H   0  0  0  0  0  0  0  0  0  0  0  0
    3.7565    1.7413    0.6960 H   0  0  0  0  0  0  0  0  0  0  0  0
    4.1839    3.4446   -1.0525 H   0  0  0  0  0  0  0  0  0  0  0  0
    3.3678    4.2500    0.3190 H   0  0  0  0  0  0  0  0  0  0  0  0
    1.4908    4.6342   -0.8680 H   0  0  0  0  0  0  0  0  0  0  0  0
    1.2970    4.2652   -3.1305 H   0  0  0  0  0  0  0  0  0  0  0  0
  1  9  1  0  0  0  0
  1  2  1  0  0  0  0
  3  2  1  0  0  0  0
  3 12  1  0  0  0  0
  4 15  1  0  0  0  0
  4  3  1  0  0  0  0
  5  4  1  0  0  0  0
  5 17  1  0  0  0  0
  6 18  1  0  0  0  0
  6  5  1  0  0  0  0
  7  6  1  0  0  0  0
  8  7  2  0  0  0  0
 10  1  1  0  0  0  0
 11  1  1  0  0  0  0
 13  3  1  0  0  0  0
 14  4  1  0  0  0  0
 16  5  1  0  0  0  0
 19  7  1  0  0  0  0
M  END
$$$$
