0 1 CSCCCO
 OpenBabel07282316283D

 16 15  0  0  0  0  0  0  0  0999 V2000
    0.0000    0.0000    0.0000 C   0  0  0  0  0  0  0  0  0  0  0  0
   -0.8557   -1.5604   -0.4492 S   0  0  0  0  0  0  0  0  0  0  0  0
   -2.5675   -1.0708   -0.7473 C   0  0  0  0  0  0  0  0  0  0  0  0
   -3.4316   -2.0546   -1.5509 C   0  0  0  0  0  0  0  0  0  0  0  0
   -4.8775   -1.6995   -1.6796 C   0  0  0  0  0  0  0  0  0  0  0  0
   -4.8256   -0.5491   -2.5342 O   0  0  0  0  0  0  0  0  0  0  0  0
   -0.3336    0.7141   -0.7716 H   0  0  0  0  0  0  0  0  0  0  0  0
    1.1011    0.0319    0.0563 H   0  0  0  0  0  0  0  0  0  0  0  0
   -0.4114    0.3161    0.9734 H   0  0  0  0  0  0  0  0  0  0  0  0
   -3.0557   -0.9464    0.2384 H   0  0  0  0  0  0  0  0  0  0  0  0
   -2.5305   -0.0764   -1.2325 H   0  0  0  0  0  0  0  0  0  0  0  0
   -3.0462   -2.0879   -2.5881 H   0  0  0  0  0  0  0  0  0  0  0  0
   -3.3944   -3.0837   -1.1448 H   0  0  0  0  0  0  0  0  0  0  0  0
   -5.5220   -2.4972   -2.0965 H   0  0  0  0  0  0  0  0  0  0  0  0
   -5.3038   -1.3980   -0.7035 H   0  0  0  0  0  0  0  0  0  0  0  0
   -5.4802    0.1661   -2.3914 H   0  0  0  0  0  0  0  0  0  0  0  0
  1  8  1  0  0  0  0
  1  9  1  0  0  0  0
  2  1  1  0  0  0  0
  3  2  1  0  0  0  0
  3 10  1  0  0  0  0
  4 13  1  0  0  0  0
  4  3  1  0  0  0  0
  5  4  1  0  0  0  0
  5 15  1  0  0  0  0
  6 16  1  0  0  0  0
  6  5  1  0  0  0  0
  7  1  1  0  0  0  0
 11  3  1  0  0  0  0
 12  4  1  0  0  0  0
 14  5  1  0  0  0  0
M  END
$$$$
