0 1 CSCCOC=O
 OpenBabel07282316283D

 15 14  0  0  0  0  0  0  0  0999 V2000
    0.0000    0.0000    0.0000 C   0  0  0  0  0  0  0  0  0  0  0  0
    0.5174   -0.4876   -1.6729 S   0  0  0  0  0  0  0  0  0  0  0  0
    1.6498   -1.7513   -1.2614 C   0  0  0  0  0  0  0  0  0  0  0  0
    3.1256   -1.3659   -1.1334 C   0  0  0  0  0  0  0  0  0  0  0  0
    3.8765   -2.4408   -0.5786 O   0  0  0  0  0  0  0  0  0  0  0  0
    4.2365   -3.4268   -1.3775 C   0  0  0  0  0  0  0  0  0  0  0  0
    4.9584   -4.3942   -1.1205 O   0  0  0  0  0  0  0  0  0  0  0  0
   -0.6365   -0.7112    0.5528 H   0  0  0  0  0  0  0  0  0  0  0  0
   -0.5637    0.9368   -0.1458 H   0  0  0  0  0  0  0  0  0  0  0  0
    0.8939    0.2184    0.6081 H   0  0  0  0  0  0  0  0  0  0  0  0
    1.4673   -2.4459   -2.1038 H   0  0  0  0  0  0  0  0  0  0  0  0
    1.3753   -2.2766   -0.3265 H   0  0  0  0  0  0  0  0  0  0  0  0
    3.5991   -1.0354   -2.0778 H   0  0  0  0  0  0  0  0  0  0  0  0
    3.1817   -0.5245   -0.4162 H   0  0  0  0  0  0  0  0  0  0  0  0
    3.7863   -3.2534   -2.3749 H   0  0  0  0  0  0  0  0  0  0  0  0
  1  8  1  0  0  0  0
  1 10  1  0  0  0  0
  2  3  1  0  0  0  0
  2  1  1  0  0  0  0
  3  4  1  0  0  0  0
  3 12  1  0  0  0  0
  4  5  1  0  0  0  0
  4 14  1  0  0  0  0
  6  7  2  0  0  0  0
  6  5  1  0  0  0  0
  9  1  1  0  0  0  0
 11  3  1  0  0  0  0
 13  4  1  0  0  0  0
 15  6  1  0  0  0  0
M  END
$$$$
