0 1 CSCCN
 OpenBabel07282316283D

 14 13  0  0  0  0  0  0  0  0999 V2000
    0.0000    0.0000    0.0000 C   0  0  0  0  0  0  0  0  0  0  0  0
   -1.3778    1.0788    0.6518 S   0  0  0  0  0  0  0  0  0  0  0  0
   -0.8941    0.9578    2.4371 C   0  0  0  0  0  0  0  0  0  0  0  0
   -1.8497    0.0992    3.2737 C   0  0  0  0  0  0  0  0  0  0  0  0
   -2.3347   -1.0518    2.5682 N   0  0  0  0  0  0  0  0  0  0  0  0
    0.9785    0.4013    0.3131 H   0  0  0  0  0  0  0  0  0  0  0  0
   -0.0428   -0.0026   -1.1022 H   0  0  0  0  0  0  0  0  0  0  0  0
   -0.0846   -1.0399    0.3579 H   0  0  0  0  0  0  0  0  0  0  0  0
    0.1294    0.5372    2.4653 H   0  0  0  0  0  0  0  0  0  0  0  0
   -0.8600    1.9584    2.9094 H   0  0  0  0  0  0  0  0  0  0  0  0
   -2.8269    0.6094    3.3742 H   0  0  0  0  0  0  0  0  0  0  0  0
   -1.4207   -0.0092    4.2885 H   0  0  0  0  0  0  0  0  0  0  0  0
   -1.4839   -1.6170    2.4716 H   0  0  0  0  0  0  0  0  0  0  0  0
   -2.9244   -1.5399    3.2513 H   0  0  0  0  0  0  0  0  0  0  0  0
  1  6  1  0  0  0  0
  1  8  1  0  0  0  0
  1  2  1  0  0  0  0
  2  3  1  0  0  0  0
  3  9  1  0  0  0  0
  3 10  1  0  0  0  0
  3  4  1  0  0  0  0
  4 11  1  0  0  0  0
  4 12  1  0  0  0  0
  5 14  1  0  0  0  0
  5  4  1  0  0  0  0
  7  1  1  0  0  0  0
 13  5  1  0  0  0  0
M  END
$$$$
