0 1 CSCNC=O
 OpenBabel07282316283D

 13 12  0  0  0  0  0  0  0  0999 V2000
    0.0000    0.0000    0.0000 C   0  0  0  0  0  0  0  0  0  0  0  0
   -0.3795    0.6590    1.6818 S   0  0  0  0  0  0  0  0  0  0  0  0
   -0.6674    2.4132    1.2410 C   0  0  0  0  0  0  0  0  0  0  0  0
    0.5840    3.1337    0.9728 N   0  0  0  0  0  0  0  0  0  0  0  0
    0.7744    4.0423    0.0151 C   0  0  0  0  0  0  0  0  0  0  0  0
   -0.1515    4.4098   -0.7140 O   0  0  0  0  0  0  0  0  0  0  0  0
    0.2387   -1.0733   -0.0879 H   0  0  0  0  0  0  0  0  0  0  0  0
    0.8350    0.5820   -0.4249 H   0  0  0  0  0  0  0  0  0  0  0  0
   -0.9092    0.2077   -0.5890 H   0  0  0  0  0  0  0  0  0  0  0  0
   -1.3084    2.5093    0.3437 H   0  0  0  0  0  0  0  0  0  0  0  0
   -1.1648    2.9534    2.0694 H   0  0  0  0  0  0  0  0  0  0  0  0
    1.3636    2.7838    1.5353 H   0  0  0  0  0  0  0  0  0  0  0  0
    1.8443    4.3633    0.0151 H   0  0  0  0  0  0  0  0  0  0  0  0
  1  2  1  0  0  0  0
  3  2  1  0  0  0  0
  3 11  1  0  0  0  0
  4  3  1  0  0  0  0
  4 12  1  0  0  0  0
  5  4  1  0  0  0  0
  6  5  2  0  0  0  0
  7  1  1  0  0  0  0
  8  1  1  0  0  0  0
  9  1  1  0  0  0  0
 10  3  1  0  0  0  0
 13  5  1  0  0  0  0
M  END
$$$$
