0 1 CSCO
 OpenBabel07282316283D

 10  9  0  0  0  0  0  0  0  0999 V2000
    0.0000    0.0000    0.0000 C   0  0  0  0  0  0  0  0  0  0  0  0
    1.1144   -0.4118    1.3424 S   0  0  0  0  0  0  0  0  0  0  0  0
    0.2814   -1.8222    2.1839 C   0  0  0  0  0  0  0  0  0  0  0  0
   -0.9259   -1.3433    2.8096 O   0  0  0  0  0  0  0  0  0  0  0  0
    0.1080    1.0899   -0.1303 H   0  0  0  0  0  0  0  0  0  0  0  0
   -1.0447   -0.2192    0.2779 H   0  0  0  0  0  0  0  0  0  0  0  0
    0.2189   -0.4928   -0.9622 H   0  0  0  0  0  0  0  0  0  0  0  0
    1.0386   -2.1791    2.9083 H   0  0  0  0  0  0  0  0  0  0  0  0
   -0.0100   -2.6820    1.5504 H   0  0  0  0  0  0  0  0  0  0  0  0
   -0.7335   -0.5743    3.3857 H   0  0  0  0  0  0  0  0  0  0  0  0
  1  6  1  0  0  0  0
  1  2  1  0  0  0  0
  2  3  1  0  0  0  0
  3  4  1  0  0  0  0
  3  8  1  0  0  0  0
  4 10  1  0  0  0  0
  5  1  1  0  0  0  0
  7  1  1  0  0  0  0
  9  3  1  0  0  0  0
M  END
$$$$
