0 1 CSCOC=O
 OpenBabel07282316283D

 12 11  0  0  0  0  0  0  0  0999 V2000
    0.0000    0.0000    0.0000 C   0  0  0  0  0  0  0  0  0  0  0  0
    1.5982    0.7217    0.4295 S   0  0  0  0  0  0  0  0  0  0  0  0
    1.2866    2.3756   -0.1694 C   0  0  0  0  0  0  0  0  0  0  0  0
    1.0679    3.1305    0.9595 O   0  0  0  0  0  0  0  0  0  0  0  0
    2.1908    3.6471    1.6564 C   0  0  0  0  0  0  0  0  0  0  0  0
    3.3593    3.7197    1.2641 O   0  0  0  0  0  0  0  0  0  0  0  0
   -0.0484   -0.1130   -1.0961 H   0  0  0  0  0  0  0  0  0  0  0  0
   -0.9131    0.5163    0.3411 H   0  0  0  0  0  0  0  0  0  0  0  0
    0.0278   -1.0038    0.4563 H   0  0  0  0  0  0  0  0  0  0  0  0
    2.1887    2.6323   -0.7575 H   0  0  0  0  0  0  0  0  0  0  0  0
    0.4082    2.4900   -0.8333 H   0  0  0  0  0  0  0  0  0  0  0  0
    1.8605    3.8751    2.6892 H   0  0  0  0  0  0  0  0  0  0  0  0
  1  8  1  0  0  0  0
  1  2  1  0  0  0  0
  1  9  1  0  0  0  0
  3  2  1  0  0  0  0
  3  4  1  0  0  0  0
  4  5  1  0  0  0  0
  5 12  1  0  0  0  0
  6  5  2  0  0  0  0
  7  1  1  0  0  0  0
 10  3  1  0  0  0  0
 11  3  1  0  0  0  0
M  END
$$$$
