0 1 CSCS
 OpenBabel07282316283D

 10  9  0  0  0  0  0  0  0  0999 V2000
    0.0000    0.0000    0.0000 C   0  0  0  0  0  0  0  0  0  0  0  0
    0.1741    1.6551   -0.6954 S   0  0  0  0  0  0  0  0  0  0  0  0
    1.5500    2.1402    0.3511 C   0  0  0  0  0  0  0  0  0  0  0  0
    1.8830    3.8574    0.7357 S   0  0  0  0  0  0  0  0  0  0  0  0
   -0.9244   -0.5025   -0.3311 H   0  0  0  0  0  0  0  0  0  0  0  0
   -0.0148    0.0744    1.1004 H   0  0  0  0  0  0  0  0  0  0  0  0
    0.8631   -0.6182   -0.2992 H   0  0  0  0  0  0  0  0  0  0  0  0
    1.2118    1.7090    1.3129 H   0  0  0  0  0  0  0  0  0  0  0  0
    2.4884    1.6280    0.0640 H   0  0  0  0  0  0  0  0  0  0  0  0
    0.7130    4.1896    1.3214 H   0  0  0  0  0  0  0  0  0  0  0  0
  1  6  1  0  0  0  0
  2  1  1  0  0  0  0
  2  3  1  0  0  0  0
  3  4  1  0  0  0  0
  3  8  1  0  0  0  0
  4 10  1  0  0  0  0
  5  1  1  0  0  0  0
  7  1  1  0  0  0  0
  9  3  1  0  0  0  0
M  END
$$$$
