0 1 CSCSCC
 OpenBabel07282316283D

 16 15  0  0  0  0  0  0  0  0999 V2000
    0.0000    0.0000    0.0000 C   0  0  0  0  0  0  0  0  0  0  0  0
    0.4107    1.1262    1.3138 S   0  0  0  0  0  0  0  0  0  0  0  0
    0.5831   -0.1149    2.7187 C   0  0  0  0  0  0  0  0  0  0  0  0
   -0.9420   -0.3064    3.6157 S   0  0  0  0  0  0  0  0  0  0  0  0
   -0.9178    1.2291    4.5291 C   0  0  0  0  0  0  0  0  0  0  0  0
   -2.2654    1.8253    4.9721 C   0  0  0  0  0  0  0  0  0  0  0  0
    0.7324   -0.8210   -0.0792 H   0  0  0  0  0  0  0  0  0  0  0  0
   -0.0105    0.5553   -0.9530 H   0  0  0  0  0  0  0  0  0  0  0  0
   -1.0000   -0.4353    0.1645 H   0  0  0  0  0  0  0  0  0  0  0  0
    0.7857   -1.1161    2.2921 H   0  0  0  0  0  0  0  0  0  0  0  0
    1.4630    0.1776    3.3234 H   0  0  0  0  0  0  0  0  0  0  0  0
   -0.3168    1.1733    5.4572 H   0  0  0  0  0  0  0  0  0  0  0  0
   -0.4653    2.0043    3.8813 H   0  0  0  0  0  0  0  0  0  0  0  0
   -2.8223    1.0923    5.5796 H   0  0  0  0  0  0  0  0  0  0  0  0
   -2.8578    2.0582    4.0713 H   0  0  0  0  0  0  0  0  0  0  0  0
   -2.1427    2.7497    5.5612 H   0  0  0  0  0  0  0  0  0  0  0  0
  1  9  1  0  0  0  0
  1  2  1  0  0  0  0
  2  3  1  0  0  0  0
  3 11  1  0  0  0  0
  3  4  1  0  0  0  0
  4  5  1  0  0  0  0
  5  6  1  0  0  0  0
  5 12  1  0  0  0  0
  6 16  1  0  0  0  0
  6 14  1  0  0  0  0
  7  1  1  0  0  0  0
  8  1  1  0  0  0  0
 10  3  1  0  0  0  0
 13  5  1  0  0  0  0
 15  6  1  0  0  0  0
M  END
$$$$
