0 1 CSSC
 OpenBabel07282316283D

 10  9  0  0  0  0  0  0  0  0999 V2000
   -0.0233    2.5593   -0.9073 C   0  0  0  0  0  0  0  0  0  0  0  0
    1.1646    3.5616    0.0125 S   0  0  0  0  0  0  0  0  0  0  0  0
   -0.0360    4.5474    1.3321 S   0  0  0  0  0  0  0  0  0  0  0  0
   -0.1852    3.3516    2.6774 C   0  0  0  0  0  0  0  0  0  0  0  0
    0.5378    2.0106   -1.6824 H   0  0  0  0  0  0  0  0  0  0  0  0
   -0.7834    3.1874   -1.4015 H   0  0  0  0  0  0  0  0  0  0  0  0
   -0.5372    1.8279   -0.2610 H   0  0  0  0  0  0  0  0  0  0  0  0
   -0.6817    2.4217    2.3526 H   0  0  0  0  0  0  0  0  0  0  0  0
    0.8009    3.0950    3.0996 H   0  0  0  0  0  0  0  0  0  0  0  0
   -0.7958    3.8187    3.4682 H   0  0  0  0  0  0  0  0  0  0  0  0
  1  7  1  0  0  0  0
  1  2  1  0  0  0  0
  2  3  1  0  0  0  0
  3  4  1  0  0  0  0
  4  9  1  0  0  0  0
  4 10  1  0  0  0  0
  5  1  1  0  0  0  0
  6  1  1  0  0  0  0
  8  4  1  0  0  0  0
M  END
$$$$
