0 1 Fc1ccLFRcLcLc1FRFRF
 OpenBabel07282316283D

 12 12  0  0  0  0  0  0  0  0999 V2000
    0.0000    0.0000    0.0000 F   0  0  0  0  0  0  0  0  0  0  0  0
   -0.4970   -0.0283    1.2742 C   0  0  0  0  0  0  0  0  0  0  0  0
   -0.9331   -1.2552    1.7960 C   0  0  0  0  0  0  0  0  0  0  0  0
   -1.2240   -1.2753    3.1655 C   0  0  0  0  0  0  0  0  0  0  0  0
   -1.4462   -2.4720    3.7955 F   0  0  0  0  0  0  0  0  0  0  0  0
   -1.0922   -0.1726    3.9753 C   0  0  0  0  0  0  0  0  0  0  0  0
   -0.7224    1.0974    3.4371 C   0  0  0  0  0  0  0  0  0  0  0  0
   -0.4131    1.0979    2.0848 C   0  0  0  0  0  0  0  0  0  0  0  0
    0.2693    2.1787    1.6125 F   0  0  0  0  0  0  0  0  0  0  0  0
   -0.6035    2.2688    4.1928 F   0  0  0  0  0  0  0  0  0  0  0  0
   -1.2802   -0.2904    5.2851 F   0  0  0  0  0  0  0  0  0  0  0  0
   -0.9617   -2.1709    1.1907 H   0  0  0  0  0  0  0  0  0  0  0  0
  1  2  1  0  0  0  0
  2  3  2  0  0  0  0
  2  8  1  0  0  0  0
  3  4  1  0  0  0  0
  4  5  1  0  0  0  0
  4  6  2  0  0  0  0
  6 11  1  0  0  0  0
  7  6  1  0  0  0  0
  7 10  1  0  0  0  0
  8  7  2  0  0  0  0
  9  8  1  0  0  0  0
 12  3  1  0  0  0  0
M  END
$$$$
