0 1 FCCLFRF
 OpenBabel07282316283D

  8  7  0  0  0  0  0  0  0  0999 V2000
    0.0000    0.0000    0.0000 F   0  0  0  0  0  0  0  0  0  0  0  0
    0.6927   -1.0408    0.4524 C   0  0  0  0  0  0  0  0  0  0  0  0
    0.1167   -2.4543    0.1016 C   0  0  0  0  0  0  0  0  0  0  0  0
   -1.2254   -2.3985    0.2767 F   0  0  0  0  0  0  0  0  0  0  0  0
    0.4778   -2.6217   -1.1719 F   0  0  0  0  0  0  0  0  0  0  0  0
    1.7196   -0.9495    0.0492 H   0  0  0  0  0  0  0  0  0  0  0  0
    0.7461   -0.8867    1.5473 H   0  0  0  0  0  0  0  0  0  0  0  0
    0.4924   -3.3191    0.6854 H   0  0  0  0  0  0  0  0  0  0  0  0
  1  2  1  0  0  0  0
  2  7  1  0  0  0  0
  3  4  1  0  0  0  0
  3  2  1  0  0  0  0
  3  8  1  0  0  0  0
  5  3  1  0  0  0  0
  6  2  1  0  0  0  0
M  END
$$$$
