0 1 FCCLFRLFRF
 OpenBabel07282316283D

  8  7  0  0  0  0  0  0  0  0999 V2000
    0.0000    0.0000    0.0000 F   0  0  0  0  0  0  0  0  0  0  0  0
   -0.5212   -0.0529    1.2100 C   0  0  0  0  0  0  0  0  0  0  0  0
   -2.0275   -0.5242    1.1096 C   0  0  0  0  0  0  0  0  0  0  0  0
   -2.5869    0.2485    0.1660 F   0  0  0  0  0  0  0  0  0  0  0  0
   -2.0336   -1.8090    0.7212 F   0  0  0  0  0  0  0  0  0  0  0  0
   -2.5745   -0.2708    2.2933 F   0  0  0  0  0  0  0  0  0  0  0  0
    0.0947   -0.7469    1.8138 H   0  0  0  0  0  0  0  0  0  0  0  0
   -0.3809    0.9656    1.6203 H   0  0  0  0  0  0  0  0  0  0  0  0
  1  2  1  0  0  0  0
  2  8  1  0  0  0  0
  2  7  1  0  0  0  0
  3  2  1  0  0  0  0
  3  6  1  0  0  0  0
  4  3  1  0  0  0  0
  5  3  1  0  0  0  0
M  END
$$$$
