0 1 FCLCLFRLFRFRLFRF
 OpenBabel07282316283D

  8  7  0  0  0  0  0  0  0  0999 V2000
    0.0000    0.0000    0.0000 F   0  0  0  0  0  0  0  0  0  0  0  0
    0.5605   -0.3558    1.2051 C   0  0  0  0  0  0  0  0  0  0  0  0
    1.0747   -1.7502    1.0720 C   0  0  0  0  0  0  0  0  0  0  0  0
    1.3125   -2.2520    2.2867 F   0  0  0  0  0  0  0  0  0  0  0  0
    0.0797   -2.5022    0.5582 F   0  0  0  0  0  0  0  0  0  0  0  0
    2.1293   -1.7758    0.1589 F   0  0  0  0  0  0  0  0  0  0  0  0
    1.5987    0.4452    1.3216 F   0  0  0  0  0  0  0  0  0  0  0  0
   -0.2868   -0.0495    2.2184 F   0  0  0  0  0  0  0  0  0  0  0  0
  1  2  1  0  0  0  0
  2  7  1  0  0  0  0
  2  8  1  0  0  0  0
  3  2  1  0  0  0  0
  3  4  1  0  0  0  0
  5  3  1  0  0  0  0
  6  3  1  0  0  0  0
M  END
$$$$
