0 1 ICCI
 OpenBabel07282316283D

  8  7  0  0  0  0  0  0  0  0999 V2000
    4.4843   -0.1252    2.0088 I   0  0  0  0  0  0  0  0  0  0  0  0
    3.0130    1.3648    2.4532 C   0  0  0  0  0  0  0  0  0  0  0  0
    3.1659    2.5232    1.5073 C   0  0  0  0  0  0  0  0  0  0  0  0
    1.6945    4.0132    1.9517 I   0  0  0  0  0  0  0  0  0  0  0  0
    2.0259    0.8701    2.3728 H   0  0  0  0  0  0  0  0  0  0  0  0
    3.1608    1.6509    3.5123 H   0  0  0  0  0  0  0  0  0  0  0  0
    4.1529    3.0179    1.5877 H   0  0  0  0  0  0  0  0  0  0  0  0
    3.0181    2.2371    0.4481 H   0  0  0  0  0  0  0  0  0  0  0  0
  1  2  1  0  0  0  0
  2  6  1  0  0  0  0
  3  7  1  0  0  0  0
  3  4  1  0  0  0  0
  3  2  1  0  0  0  0
  5  2  1  0  0  0  0
  8  3  1  0  0  0  0
M  END
$$$$
