0 1 MO-QCL=ORCC
 OpenBabel07282316283D

 10  9  0  0  0  0  0  0  0  0999 V2000
    0.0000    0.0000    0.0000 O   0  0  0  0  0  0  0  0  0  0  0  0
   -0.0665   -0.9907    0.7254 C   0  0  0  0  0  0  0  0  0  0  0  0
    0.6788   -2.0149    0.5808 O   0  0  0  0  0  1  0  0  0  0  0  0
   -1.0196   -1.0417    1.9301 C   0  0  0  0  0  0  0  0  0  0  0  0
   -2.1556   -0.0701    1.8125 C   0  0  0  0  0  0  0  0  0  0  0  0
   -1.4885   -2.0126    2.1805 H   0  0  0  0  0  0  0  0  0  0  0  0
   -0.4346   -0.7134    2.8107 H   0  0  0  0  0  0  0  0  0  0  0  0
   -2.5568    0.2684    2.7827 H   0  0  0  0  0  0  0  0  0  0  0  0
   -2.9480   -0.6191    1.2764 H   0  0  0  0  0  0  0  0  0  0  0  0
   -1.8780    0.8166    1.2180 H   0  0  0  0  0  0  0  0  0  0  0  0
  1  2  2  0  0  0  0
  2  4  1  0  0  0  0
  3  2  1  0  0  0  0
  4  6  1  0  0  0  0
  4  7  1  0  0  0  0
  5  4  1  0  0  0  0
  5  8  1  0  0  0  0
  9  5  1  0  0  0  0
 10  5  1  0  0  0  0
M  END
$$$$
