0 1 N
 OpenBabel07282316283D

  4  3  0  0  0  0  0  0  0  0999 V2000
    1.3941    2.2633    0.4677 N   0  0  0  0  0  0  0  0  0  0  0  0
    1.9970    2.1998   -0.3588 H   0  0  0  0  0  0  0  0  0  0  0  0
    0.6038    2.8650    0.2145 H   0  0  0  0  0  0  0  0  0  0  0  0
    1.0139    1.3256    0.6319 H   0  0  0  0  0  0  0  0  0  0  0  0
  1  4  1  0  0  0  0
  2  1  1  0  0  0  0
  3  1  1  0  0  0  0
M  END
$$$$
