0 1 NCCCS
 OpenBabel07282316283D

 14 13  0  0  0  0  0  0  0  0999 V2000
    0.0000    0.0000    0.0000 N   0  0  0  0  0  0  0  0  0  0  0  0
   -0.8020    1.2208   -0.1494 C   0  0  0  0  0  0  0  0  0  0  0  0
   -0.5438    2.0864    1.0355 C   0  0  0  0  0  0  0  0  0  0  0  0
   -1.6043    3.2233    1.1151 C   0  0  0  0  0  0  0  0  0  0  0  0
   -1.5528    3.9427    2.7486 S   0  0  0  0  0  0  0  0  0  0  0  0
   -0.3032   -0.5328    0.8227 H   0  0  0  0  0  0  0  0  0  0  0  0
   -0.3039   -0.5409   -0.8171 H   0  0  0  0  0  0  0  0  0  0  0  0
   -0.4744    1.7119   -1.0859 H   0  0  0  0  0  0  0  0  0  0  0  0
   -1.8847    1.0092   -0.2412 H   0  0  0  0  0  0  0  0  0  0  0  0
   -0.5116    1.4429    1.9357 H   0  0  0  0  0  0  0  0  0  0  0  0
    0.4721    2.4975    0.8792 H   0  0  0  0  0  0  0  0  0  0  0  0
   -1.5720    4.0546    0.3849 H   0  0  0  0  0  0  0  0  0  0  0  0
   -2.6283    2.8030    1.1015 H   0  0  0  0  0  0  0  0  0  0  0  0
   -1.3281    2.8109    3.4493 H   0  0  0  0  0  0  0  0  0  0  0  0
  1  6  1  0  0  0  0
  2  1  1  0  0  0  0
  2  3  1  0  0  0  0
  3  4  1  0  0  0  0
  3 10  1  0  0  0  0
  4  5  1  0  0  0  0
  5 14  1  0  0  0  0
  7  1  1  0  0  0  0
  8  2  1  0  0  0  0
  9  2  1  0  0  0  0
 11  3  1  0  0  0  0
 12  4  1  0  0  0  0
 13  4  1  0  0  0  0
M  END
$$$$
