0 1 NCCCL=ORN
 OpenBabel07282316283D

 14 13  0  0  0  0  0  0  0  0999 V2000
    0.0000    0.0000    0.0000 N   0  0  0  0  0  0  0  0  0  0  0  0
    0.8155   -0.6586   -1.0730 C   0  0  0  0  0  0  0  0  0  0  0  0
    2.2773   -0.2349   -0.9739 C   0  0  0  0  0  0  0  0  0  0  0  0
    2.4366    1.3187   -1.1169 C   0  0  0  0  0  0  0  0  0  0  0  0
    1.8650    1.9346   -2.0234 O   0  0  0  0  0  0  0  0  0  0  0  0
    3.3763    1.8089   -0.3947 N   0  0  0  0  0  0  0  0  0  0  0  0
    0.3582   -0.4094    0.8699 H   0  0  0  0  0  0  0  0  0  0  0  0
    0.1930    1.0060    0.0584 H   0  0  0  0  0  0  0  0  0  0  0  0
    0.7754   -1.7649   -1.0712 H   0  0  0  0  0  0  0  0  0  0  0  0
    0.3797   -0.3075   -2.0280 H   0  0  0  0  0  0  0  0  0  0  0  0
    2.7770   -0.6820   -0.0931 H   0  0  0  0  0  0  0  0  0  0  0  0
    2.8341   -0.5554   -1.8755 H   0  0  0  0  0  0  0  0  0  0  0  0
    3.8061    1.1999    0.3060 H   0  0  0  0  0  0  0  0  0  0  0  0
    3.5187    2.8209   -0.3492 H   0  0  0  0  0  0  0  0  0  0  0  0
  1  8  1  0  0  0  0
  1  7  1  0  0  0  0
  2  9  1  0  0  0  0
  2  3  1  0  0  0  0
  2  1  1  0  0  0  0
  3 11  1  0  0  0  0
  4  3  1  0  0  0  0
  4  6  1  0  0  0  0
  5  4  2  0  0  0  0
  6 14  1  0  0  0  0
  6 13  1  0  0  0  0
 10  2  1  0  0  0  0
 12  3  1  0  0  0  0
M  END
$$$$
