0 1 NCCCL=ORO
 OpenBabel07282316283D

 13 12  0  0  0  0  0  0  0  0999 V2000
    0.0000    0.0000    0.0000 N   0  0  0  0  0  0  0  0  0  0  0  0
    1.2311    0.3787    0.7035 C   0  0  0  0  0  0  0  0  0  0  0  0
    1.0653   -0.1587    2.1219 C   0  0  0  0  0  0  0  0  0  0  0  0
    2.0742    0.3401    3.2058 C   0  0  0  0  0  0  0  0  0  0  0  0
    3.0415    0.9911    2.8786 O   0  0  0  0  0  0  0  0  0  0  0  0
    1.7320   -0.0741    4.4273 O   0  0  0  0  0  0  0  0  0  0  0  0
    0.2632   -0.2916   -0.9478 H   0  0  0  0  0  0  0  0  0  0  0  0
   -0.6394    0.7942   -0.1139 H   0  0  0  0  0  0  0  0  0  0  0  0
    2.1630   -0.0210    0.2596 H   0  0  0  0  0  0  0  0  0  0  0  0
    1.2971    1.4836    0.6864 H   0  0  0  0  0  0  0  0  0  0  0  0
    0.0457    0.0351    2.5070 H   0  0  0  0  0  0  0  0  0  0  0  0
    1.2263   -1.2539    2.1318 H   0  0  0  0  0  0  0  0  0  0  0  0
    2.3325    0.1521    5.1890 H   0  0  0  0  0  0  0  0  0  0  0  0
  1  2  1  0  0  0  0
  2  3  1  0  0  0  0
  3 12  1  0  0  0  0
  3 11  1  0  0  0  0
  3  4  1  0  0  0  0
  4  6  1  0  0  0  0
  5  4  2  0  0  0  0
  6 13  1  0  0  0  0
  7  1  1  0  0  0  0
  8  1  1  0  0  0  0
  9  2  1  0  0  0  0
 10  2  1  0  0  0  0
M  END
$$$$
