0 1 NCCL=ORO
 OpenBabel07282316283D

 10  9  0  0  0  0  0  0  0  0999 V2000
    0.0000    0.0000    0.0000 N   0  0  0  0  0  0  0  0  0  0  0  0
    0.5124    1.3148    0.4890 C   0  0  0  0  0  0  0  0  0  0  0  0
   -0.6569    2.0192    1.1837 C   0  0  0  0  0  0  0  0  0  0  0  0
   -0.6320    2.8648    2.0933 O   0  0  0  0  0  0  0  0  0  0  0  0
   -1.7957    1.6303    0.5476 O   0  0  0  0  0  0  0  0  0  0  0  0
    0.6541   -0.5215   -0.5941 H   0  0  0  0  0  0  0  0  0  0  0  0
   -0.2179   -0.6153    0.7916 H   0  0  0  0  0  0  0  0  0  0  0  0
    1.4137    1.0547    1.0767 H   0  0  0  0  0  0  0  0  0  0  0  0
    0.8493    1.8018   -0.4462 H   0  0  0  0  0  0  0  0  0  0  0  0
   -1.4720    0.8240    0.0606 H   0  0  0  0  0  0  0  0  0  0  0  0
  1  2  1  0  0  0  0
  1  7  1  0  0  0  0
  2  8  1  0  0  0  0
  2  3  1  0  0  0  0
  3  4  2  0  0  0  0
  5  3  1  0  0  0  0
  6  1  1  0  0  0  0
  9  2  1  0  0  0  0
 10  5  1  0  0  0  0
M  END
$$$$
