0 1 NCCN
 OpenBabel07282316283D

 12 11  0  0  0  0  0  0  0  0999 V2000
    0.0000    0.0000    0.0000 N   0  0  0  0  0  0  0  0  0  0  0  0
    0.1113   -0.1088   -1.4385 C   0  0  0  0  0  0  0  0  0  0  0  0
   -0.6713   -1.2751   -1.9303 C   0  0  0  0  0  0  0  0  0  0  0  0
   -2.0478   -0.9400   -1.8671 N   0  0  0  0  0  0  0  0  0  0  0  0
    0.4781   -0.8274    0.3735 H   0  0  0  0  0  0  0  0  0  0  0  0
    0.5746    0.8063    0.2690 H   0  0  0  0  0  0  0  0  0  0  0  0
   -0.3367    0.7897   -1.9049 H   0  0  0  0  0  0  0  0  0  0  0  0
    1.1774   -0.1454   -1.7343 H   0  0  0  0  0  0  0  0  0  0  0  0
   -0.3613   -1.4886   -2.9713 H   0  0  0  0  0  0  0  0  0  0  0  0
   -0.4916   -2.1887   -1.3315 H   0  0  0  0  0  0  0  0  0  0  0  0
   -2.2088    0.0484   -2.0904 H   0  0  0  0  0  0  0  0  0  0  0  0
   -2.3119   -1.0559   -0.8825 H   0  0  0  0  0  0  0  0  0  0  0  0
  1  6  1  0  0  0  0
  1  5  1  0  0  0  0
  2  1  1  0  0  0  0
  3  4  1  0  0  0  0
  3  2  1  0  0  0  0
  3 10  1  0  0  0  0
  4 12  1  0  0  0  0
  7  2  1  0  0  0  0
  8  2  1  0  0  0  0
  9  3  1  0  0  0  0
 11  4  1  0  0  0  0
M  END
$$$$
