0 1 NCCO
 OpenBabel07282316283D

 11 10  0  0  0  0  0  0  0  0999 V2000
    0.0000    0.0000    0.0000 N   0  0  0  0  0  0  0  0  0  0  0  0
    1.3612   -0.3541   -0.4574 C   0  0  0  0  0  0  0  0  0  0  0  0
    2.3348    0.8045   -0.2652 C   0  0  0  0  0  0  0  0  0  0  0  0
    1.9292    1.2824    0.9689 O   0  0  0  0  0  0  0  0  0  0  0  0
   -0.4896   -0.8929    0.1253 H   0  0  0  0  0  0  0  0  0  0  0  0
   -0.4847    0.4857   -0.7627 H   0  0  0  0  0  0  0  0  0  0  0  0
    1.6808   -1.2354    0.1314 H   0  0  0  0  0  0  0  0  0  0  0  0
    1.3944   -0.6345   -1.5278 H   0  0  0  0  0  0  0  0  0  0  0  0
    3.3846    0.4535   -0.2651 H   0  0  0  0  0  0  0  0  0  0  0  0
    2.2544    1.6254   -1.0035 H   0  0  0  0  0  0  0  0  0  0  0  0
    1.0373    0.8965    1.0956 H   0  0  0  0  0  0  0  0  0  0  0  0
  1  5  1  0  0  0  0
  2  3  1  0  0  0  0
  2  1  1  0  0  0  0
  2  7  1  0  0  0  0
  3  9  1  0  0  0  0
  3  4  1  0  0  0  0
  4 11  1  0  0  0  0
  6  1  1  0  0  0  0
  8  2  1  0  0  0  0
 10  3  1  0  0  0  0
M  END
$$$$
