0 1 NCL=ORCO
 OpenBabel07282316283D

 10  9  0  0  0  0  0  0  0  0999 V2000
    0.0000    0.0000    0.0000 N   0  0  0  0  0  0  0  0  0  0  0  0
    1.0003    0.7712   -0.2487 C   0  0  0  0  0  0  0  0  0  0  0  0
    1.6675    0.5495   -1.2933 O   0  0  0  0  0  0  0  0  0  0  0  0
    1.2710    1.8777    0.7556 C   0  0  0  0  0  0  0  0  0  0  0  0
    0.6591    1.5548    1.9931 O   0  0  0  0  0  0  0  0  0  0  0  0
   -0.1625   -0.7960   -0.6218 H   0  0  0  0  0  0  0  0  0  0  0  0
   -0.5121    0.0725    0.8826 H   0  0  0  0  0  0  0  0  0  0  0  0
    0.7184    2.8035    0.5043 H   0  0  0  0  0  0  0  0  0  0  0  0
    2.3410    2.1420    0.8590 H   0  0  0  0  0  0  0  0  0  0  0  0
    0.8596    0.6324    2.2563 H   0  0  0  0  0  0  0  0  0  0  0  0
  1  7  1  0  0  0  0
  2  1  1  0  0  0  0
  2  4  1  0  0  0  0
  3  2  2  0  0  0  0
  4  9  1  0  0  0  0
  4  5  1  0  0  0  0
  5 10  1  0  0  0  0
  6  1  1  0  0  0  0
  8  4  1  0  0  0  0
M  END
$$$$
