0 1 NCL=ORCCS
 OpenBabel07282316283D

 13 12  0  0  0  0  0  0  0  0999 V2000
    0.0000    0.0000    0.0000 N   0  0  0  0  0  0  0  0  0  0  0  0
    0.5228   -0.8617   -0.9034 C   0  0  0  0  0  0  0  0  0  0  0  0
    0.9177   -0.3751   -1.9552 O   0  0  0  0  0  0  0  0  0  0  0  0
    0.4799   -2.3479   -0.5886 C   0  0  0  0  0  0  0  0  0  0  0  0
    1.4088   -3.0708   -1.5355 C   0  0  0  0  0  0  0  0  0  0  0  0
    1.2309   -4.9113   -1.3282 S   0  0  0  0  0  0  0  0  0  0  0  0
   -0.2886   -0.2925    0.9368 H   0  0  0  0  0  0  0  0  0  0  0  0
   -0.2305    0.9381   -0.3367 H   0  0  0  0  0  0  0  0  0  0  0  0
    0.9002   -2.6715    0.3831 H   0  0  0  0  0  0  0  0  0  0  0  0
   -0.5716   -2.6913   -0.6316 H   0  0  0  0  0  0  0  0  0  0  0  0
    1.1126   -2.7271   -2.5452 H   0  0  0  0  0  0  0  0  0  0  0  0
    2.4879   -2.8575   -1.4105 H   0  0  0  0  0  0  0  0  0  0  0  0
    0.0751   -5.0367   -2.0144 H   0  0  0  0  0  0  0  0  0  0  0  0
  1  7  1  0  0  0  0
  2  4  1  0  0  0  0
  2  1  1  0  0  0  0
  3  2  2  0  0  0  0
  4  9  1  0  0  0  0
  5 12  1  0  0  0  0
  5  6  1  0  0  0  0
  5  4  1  0  0  0  0
  8  1  1  0  0  0  0
 10  4  1  0  0  0  0
 11  5  1  0  0  0  0
 13  6  1  0  0  0  0
M  END
$$$$
