0 1 O=CNCCNC=O
 OpenBabel07282316283D

 16 15  0  0  0  0  0  0  0  0999 V2000
    0.0000    0.0000    0.0000 O   0  0  0  0  0  0  0  0  0  0  0  0
   -0.7574    0.3653   -0.8809 C   0  0  0  0  0  0  0  0  0  0  0  0
   -2.0473   -0.0711   -1.0119 N   0  0  0  0  0  0  0  0  0  0  0  0
   -2.7866   -0.8994   -0.0414 C   0  0  0  0  0  0  0  0  0  0  0  0
   -3.6175    0.0071    0.9288 C   0  0  0  0  0  0  0  0  0  0  0  0
   -3.9552   -0.6782    2.1388 N   0  0  0  0  0  0  0  0  0  0  0  0
   -3.4074   -0.6444    3.3526 C   0  0  0  0  0  0  0  0  0  0  0  0
   -2.5005    0.1511    3.6376 O   0  0  0  0  0  0  0  0  0  0  0  0
   -0.4770    1.1140   -1.6608 H   0  0  0  0  0  0  0  0  0  0  0  0
   -2.6015    0.3926   -1.7361 H   0  0  0  0  0  0  0  0  0  0  0  0
   -2.1170   -1.6474    0.4252 H   0  0  0  0  0  0  0  0  0  0  0  0
   -3.4691   -1.4391   -0.7257 H   0  0  0  0  0  0  0  0  0  0  0  0
   -2.9889    0.8716    1.2167 H   0  0  0  0  0  0  0  0  0  0  0  0
   -4.5718    0.4026    0.5309 H   0  0  0  0  0  0  0  0  0  0  0  0
   -4.8591   -1.1519    2.2094 H   0  0  0  0  0  0  0  0  0  0  0  0
   -4.0346   -1.1576    4.1213 H   0  0  0  0  0  0  0  0  0  0  0  0
  2  1  2  0  0  0  0
  3  2  1  0  0  0  0
  3  4  1  0  0  0  0
  4 11  1  0  0  0  0
  4  5  1  0  0  0  0
  5 13  1  0  0  0  0
  5  6  1  0  0  0  0
  6 15  1  0  0  0  0
  6  7  1  0  0  0  0
  7  8  2  0  0  0  0
  7 16  1  0  0  0  0
  9  2  1  0  0  0  0
 10  3  1  0  0  0  0
 12  4  1  0  0  0  0
 14  5  1  0  0  0  0
M  END
$$$$
