0 1 O=CNCCCL=ORN
 OpenBabel07282316283D

 16 15  0  0  0  0  0  0  0  0999 V2000
    0.0000    0.0000    0.0000 O   0  0  0  0  0  0  0  0  0  0  0  0
    1.1847   -0.3439    0.1991 C   0  0  0  0  0  0  0  0  0  0  0  0
    2.1019    0.5309    0.5474 N   0  0  0  0  0  0  0  0  0  0  0  0
    2.0228    1.9724    0.6388 C   0  0  0  0  0  0  0  0  0  0  0  0
    3.2018    2.6379    1.3978 C   0  0  0  0  0  0  0  0  0  0  0  0
    4.4797    2.6593    0.6051 C   0  0  0  0  0  0  0  0  0  0  0  0
    4.3735    3.1593   -0.4935 O   0  0  0  0  0  0  0  0  0  0  0  0
    5.6420    2.1919    1.0995 N   0  0  0  0  0  0  0  0  0  0  0  0
    1.5651   -1.3924    0.1380 H   0  0  0  0  0  0  0  0  0  0  0  0
    3.0497    0.1558    0.6349 H   0  0  0  0  0  0  0  0  0  0  0  0
    1.9506    2.4282   -0.3674 H   0  0  0  0  0  0  0  0  0  0  0  0
    1.0722    2.1745    1.1688 H   0  0  0  0  0  0  0  0  0  0  0  0
    2.9844    3.7001    1.6208 H   0  0  0  0  0  0  0  0  0  0  0  0
    3.2300    2.0910    2.3599 H   0  0  0  0  0  0  0  0  0  0  0  0
    5.5729    1.7167    2.0028 H   0  0  0  0  0  0  0  0  0  0  0  0
    6.4581    2.0386    0.5020 H   0  0  0  0  0  0  0  0  0  0  0  0
  1  2  2  0  0  0  0
  2  3  1  0  0  0  0
  3 10  1  0  0  0  0
  3  4  1  0  0  0  0
  4 12  1  0  0  0  0
  4  5  1  0  0  0  0
  5 13  1  0  0  0  0
  5 14  1  0  0  0  0
  6  8  1  0  0  0  0
  6  5  1  0  0  0  0
  7  6  2  0  0  0  0
  8 15  1  0  0  0  0
  9  2  1  0  0  0  0
 11  4  1  0  0  0  0
 16  8  1  0  0  0  0
M  END
$$$$
