0 1 O=CNCOC=O
 OpenBabel07282316283D

 12 11  0  0  0  0  0  0  0  0999 V2000
    0.0000    0.0000    0.0000 O   0  0  0  0  0  0  0  0  0  0  0  0
   -1.1557    0.2023   -0.4061 C   0  0  0  0  0  0  0  0  0  0  0  0
   -2.1085    0.9114    0.1810 N   0  0  0  0  0  0  0  0  0  0  0  0
   -1.9198    1.5315    1.5047 C   0  0  0  0  0  0  0  0  0  0  0  0
   -1.1578    2.6778    1.3339 O   0  0  0  0  0  0  0  0  0  0  0  0
    0.0491    2.5794    1.9306 C   0  0  0  0  0  0  0  0  0  0  0  0
    0.9477    3.4354    1.8496 O   0  0  0  0  0  0  0  0  0  0  0  0
   -1.5034   -0.0802   -1.4294 H   0  0  0  0  0  0  0  0  0  0  0  0
   -3.0183    0.9741   -0.2826 H   0  0  0  0  0  0  0  0  0  0  0  0
   -1.5875    0.6740    2.1210 H   0  0  0  0  0  0  0  0  0  0  0  0
   -2.9391    1.8089    1.8357 H   0  0  0  0  0  0  0  0  0  0  0  0
    0.0928    1.7093    2.6153 H   0  0  0  0  0  0  0  0  0  0  0  0
  2  1  2  0  0  0  0
  2  3  1  0  0  0  0
  3  4  1  0  0  0  0
  4 11  1  0  0  0  0
  4 10  1  0  0  0  0
  5  4  1  0  0  0  0
  5  6  1  0  0  0  0
  6 12  1  0  0  0  0
  7  6  2  0  0  0  0
  8  2  1  0  0  0  0
  9  3  1  0  0  0  0
M  END
$$$$
