0 1 O=CNCCOC=O
 OpenBabel07282316283D

 15 14  0  0  0  0  0  0  0  0999 V2000
    0.0000    0.0000    0.0000 O   0  0  0  0  0  0  0  0  0  0  0  0
    1.1189    0.2887   -0.4263 C   0  0  0  0  0  0  0  0  0  0  0  0
    1.6397   -0.2558   -1.5482 N   0  0  0  0  0  0  0  0  0  0  0  0
    1.1828   -1.4227   -2.2801 C   0  0  0  0  0  0  0  0  0  0  0  0
    1.0692   -1.0072   -3.7262 C   0  0  0  0  0  0  0  0  0  0  0  0
    2.2769   -0.5352   -4.2607 O   0  0  0  0  0  0  0  0  0  0  0  0
    2.3041   -0.3636   -5.5742 C   0  0  0  0  0  0  0  0  0  0  0  0
    3.2123    0.3793   -6.0892 O   0  0  0  0  0  0  0  0  0  0  0  0
    1.6917    1.1850   -0.0853 H   0  0  0  0  0  0  0  0  0  0  0  0
    2.5238    0.1045   -1.9159 H   0  0  0  0  0  0  0  0  0  0  0  0
    1.9263   -2.2338   -2.1583 H   0  0  0  0  0  0  0  0  0  0  0  0
    0.1884   -1.8365   -2.0244 H   0  0  0  0  0  0  0  0  0  0  0  0
    0.7409   -1.8465   -4.3689 H   0  0  0  0  0  0  0  0  0  0  0  0
    0.3910   -0.1530   -3.9154 H   0  0  0  0  0  0  0  0  0  0  0  0
    1.4760   -0.9482   -6.0215 H   0  0  0  0  0  0  0  0  0  0  0  0
  2  9  1  0  0  0  0
  2  1  2  0  0  0  0
  3  2  1  0  0  0  0
  4 11  1  0  0  0  0
  4 12  1  0  0  0  0
  4  3  1  0  0  0  0
  5  4  1  0  0  0  0
  6  5  1  0  0  0  0
  7  6  1  0  0  0  0
  8  7  2  0  0  0  0
 10  3  1  0  0  0  0
 13  5  1  0  0  0  0
 14  5  1  0  0  0  0
 15  7  1  0  0  0  0
M  END
$$$$
