0 1 O=CNCCCL=ORO
 OpenBabel07282316283D

 15 14  0  0  0  0  0  0  0  0999 V2000
    0.0000    0.0000    0.0000 O   0  0  0  0  0  0  0  0  0  0  0  0
   -1.0363    0.6567   -0.1428 C   0  0  0  0  0  0  0  0  0  0  0  0
   -1.2632    1.6221   -1.0418 N   0  0  0  0  0  0  0  0  0  0  0  0
   -0.2567    1.9182   -2.1391 C   0  0  0  0  0  0  0  0  0  0  0  0
   -0.1398    3.4373   -2.5367 C   0  0  0  0  0  0  0  0  0  0  0  0
   -0.3684    3.8324   -3.9829 C   0  0  0  0  0  0  0  0  0  0  0  0
   -0.9642    3.1402   -4.7990 O   0  0  0  0  0  0  0  0  0  0  0  0
    0.2526    4.9847   -4.2674 O   0  0  0  0  0  0  0  0  0  0  0  0
   -1.9867    0.3205    0.3381 H   0  0  0  0  0  0  0  0  0  0  0  0
   -2.2612    1.8460   -1.0626 H   0  0  0  0  0  0  0  0  0  0  0  0
   -0.4769    1.2490   -2.9929 H   0  0  0  0  0  0  0  0  0  0  0  0
    0.7461    1.6523   -1.7529 H   0  0  0  0  0  0  0  0  0  0  0  0
    0.9236    3.5559   -2.2529 H   0  0  0  0  0  0  0  0  0  0  0  0
   -0.7445    4.0473   -1.8383 H   0  0  0  0  0  0  0  0  0  0  0  0
    0.6314    5.3997   -3.4451 H   0  0  0  0  0  0  0  0  0  0  0  0
  2  1  2  0  0  0  0
  2  9  1  0  0  0  0
  3  2  1  0  0  0  0
  4 12  1  0  0  0  0
  4  3  1  0  0  0  0
  5 13  1  0  0  0  0
  5  4  1  0  0  0  0
  5 14  1  0  0  0  0
  6  5  1  0  0  0  0
  7  6  2  0  0  0  0
  8  6  1  0  0  0  0
  8 15  1  0  0  0  0
 10  3  1  0  0  0  0
 11  4  1  0  0  0  0
M  END
$$$$
