0 1 O=CNLCRC
 OpenBabel07282316283D

 12 11  0  0  0  0  0  0  0  0999 V2000
    0.5207    1.6236    0.0910 O   0  0  0  0  0  0  0  0  0  0  0  0
    1.0428    0.7929    0.8212 C   0  0  0  0  0  0  0  0  0  0  0  0
    2.3222    0.8312    1.2801 N   0  0  0  0  0  0  0  0  0  0  0  0
    2.8528   -0.1989    2.1431 C   0  0  0  0  0  0  0  0  0  0  0  0
    3.2013    1.9196    0.9146 C   0  0  0  0  0  0  0  0  0  0  0  0
    0.4966   -0.1080    1.1924 H   0  0  0  0  0  0  0  0  0  0  0  0
    3.7194   -0.6940    1.6735 H   0  0  0  0  0  0  0  0  0  0  0  0
    3.1718    0.2266    3.1094 H   0  0  0  0  0  0  0  0  0  0  0  0
    2.0744   -0.9571    2.3323 H   0  0  0  0  0  0  0  0  0  0  0  0
    2.6537    2.6172    0.2588 H   0  0  0  0  0  0  0  0  0  0  0  0
    3.5418    2.4703    1.8076 H   0  0  0  0  0  0  0  0  0  0  0  0
    4.0866    1.5479    0.3717 H   0  0  0  0  0  0  0  0  0  0  0  0
  1  2  2  0  0  0  0
  2  6  1  0  0  0  0
  2  3  1  0  0  0  0
  3  4  1  0  0  0  0
  4  9  1  0  0  0  0
  4  8  1  0  0  0  0
  5  3  1  0  0  0  0
  5 11  1  0  0  0  0
  7  4  1  0  0  0  0
 10  5  1  0  0  0  0
 12  5  1  0  0  0  0
M  END
$$$$
