0 1 O=COCCL=ORN
 OpenBabel07282316283D

 12 11  0  0  0  0  0  0  0  0999 V2000
    0.0000    0.0000    0.0000 O   0  0  0  0  0  0  0  0  0  0  0  0
   -1.2450    0.1006    0.0572 C   0  0  0  0  0  0  0  0  0  0  0  0
   -2.2605   -0.6324   -0.2994 O   0  0  0  0  0  0  0  0  0  0  0  0
   -2.0780   -1.9787   -0.7087 C   0  0  0  0  0  0  0  0  0  0  0  0
   -1.7080   -2.7367    0.5822 C   0  0  0  0  0  0  0  0  0  0  0  0
   -2.5633   -3.2959    1.2424 O   0  0  0  0  0  0  0  0  0  0  0  0
   -0.4433   -2.8364    0.8393 N   0  0  0  0  0  0  0  0  0  0  0  0
   -1.6448    1.0771    0.3955 H   0  0  0  0  0  0  0  0  0  0  0  0
   -1.2503   -2.0597   -1.4393 H   0  0  0  0  0  0  0  0  0  0  0  0
   -2.9842   -2.4079   -1.1779 H   0  0  0  0  0  0  0  0  0  0  0  0
    0.2059   -2.2639    0.2941 H   0  0  0  0  0  0  0  0  0  0  0  0
   -0.1428   -3.2454    1.7275 H   0  0  0  0  0  0  0  0  0  0  0  0
  1  2  2  0  0  0  0
  2  8  1  0  0  0  0
  3  2  1  0  0  0  0
  4  3  1  0  0  0  0
  4  5  1  0  0  0  0
  5  7  1  0  0  0  0
  5  6  2  0  0  0  0
  7 12  1  0  0  0  0
  9  4  1  0  0  0  0
 10  4  1  0  0  0  0
 11  7  1  0  0  0  0
M  END
$$$$
