0 1 O=COCCCL=ORO
 OpenBabel07282316283D

 14 13  0  0  0  0  0  0  0  0999 V2000
    0.0000    0.0000    0.0000 O   0  0  0  0  0  0  0  0  0  0  0  0
    0.3117    0.6036   -1.0341 C   0  0  0  0  0  0  0  0  0  0  0  0
   -0.5773    1.3543   -1.7848 O   0  0  0  0  0  0  0  0  0  0  0  0
   -1.9860    1.3552   -1.4672 C   0  0  0  0  0  0  0  0  0  0  0  0
   -2.6034    2.4760   -2.2468 C   0  0  0  0  0  0  0  0  0  0  0  0
   -2.4770    3.7297   -1.3957 C   0  0  0  0  0  0  0  0  0  0  0  0
   -1.3827    4.2093   -1.0759 O   0  0  0  0  0  0  0  0  0  0  0  0
   -3.7618    4.0890   -0.9606 O   0  0  0  0  0  0  0  0  0  0  0  0
    1.3663    0.7357   -1.3470 H   0  0  0  0  0  0  0  0  0  0  0  0
   -2.4831    0.4036   -1.7371 H   0  0  0  0  0  0  0  0  0  0  0  0
   -1.9901    1.4357   -0.3631 H   0  0  0  0  0  0  0  0  0  0  0  0
   -2.1419    2.7801   -3.2059 H   0  0  0  0  0  0  0  0  0  0  0  0
   -3.6658    2.2367   -2.4454 H   0  0  0  0  0  0  0  0  0  0  0  0
   -3.7443    4.9608   -0.4793 H   0  0  0  0  0  0  0  0  0  0  0  0
  2  1  2  0  0  0  0
  3  4  1  0  0  0  0
  3  2  1  0  0  0  0
  4 11  1  0  0  0  0
  5  4  1  0  0  0  0
  5  6  1  0  0  0  0
  6  7  2  0  0  0  0
  6  8  1  0  0  0  0
  8 14  1  0  0  0  0
  9  2  1  0  0  0  0
 10  4  1  0  0  0  0
 12  5  1  0  0  0  0
 13  5  1  0  0  0  0
M  END
$$$$
