0 1 O=COCCCOC=O
 OpenBabel07282316283D

 17 16  0  0  0  0  0  0  0  0999 V2000
    0.0000    0.0000    0.0000 O   0  0  0  0  0  0  0  0  0  0  0  0
   -0.0824    0.1533   -1.2105 C   0  0  0  0  0  0  0  0  0  0  0  0
   -1.0973    0.6679   -1.8552 O   0  0  0  0  0  0  0  0  0  0  0  0
   -2.2114    1.1077   -1.1066 C   0  0  0  0  0  0  0  0  0  0  0  0
   -1.9610    2.4718   -0.4597 C   0  0  0  0  0  0  0  0  0  0  0  0
   -3.0498    2.9215    0.5332 C   0  0  0  0  0  0  0  0  0  0  0  0
   -2.8195    4.3193    0.8989 O   0  0  0  0  0  0  0  0  0  0  0  0
   -1.9709    4.5958    1.8341 C   0  0  0  0  0  0  0  0  0  0  0  0
   -1.0888    3.8453    2.2593 O   0  0  0  0  0  0  0  0  0  0  0  0
    0.6957   -0.0634   -1.9690 H   0  0  0  0  0  0  0  0  0  0  0  0
   -2.4900    0.3595   -0.3398 H   0  0  0  0  0  0  0  0  0  0  0  0
   -3.0129    1.1218   -1.8700 H   0  0  0  0  0  0  0  0  0  0  0  0
   -1.8610    3.1872   -1.2985 H   0  0  0  0  0  0  0  0  0  0  0  0
   -0.9710    2.3842    0.0278 H   0  0  0  0  0  0  0  0  0  0  0  0
   -3.9904    2.9133   -0.0505 H   0  0  0  0  0  0  0  0  0  0  0  0
   -3.1834    2.2413    1.3963 H   0  0  0  0  0  0  0  0  0  0  0  0
   -2.0413    5.6522    2.1609 H   0  0  0  0  0  0  0  0  0  0  0  0
  2  1  2  0  0  0  0
  3  2  1  0  0  0  0
  3  4  1  0  0  0  0
  4  5  1  0  0  0  0
  4 11  1  0  0  0  0
  5 14  1  0  0  0  0
  5  6  1  0  0  0  0
  6  7  1  0  0  0  0
  6 16  1  0  0  0  0
  7  8  1  0  0  0  0
  8 17  1  0  0  0  0
  8  9  2  0  0  0  0
 10  2  1  0  0  0  0
 12  4  1  0  0  0  0
 13  5  1  0  0  0  0
 15  6  1  0  0  0  0
M  END
$$$$
