0 1 O=COCCOC=O
 OpenBabel07282316283D

 14 13  0  0  0  0  0  0  0  0999 V2000
    0.0000    0.0000    0.0000 O   0  0  0  0  0  0  0  0  0  0  0  0
    0.9665    0.6826    0.2307 C   0  0  0  0  0  0  0  0  0  0  0  0
    1.1339    1.9573   -0.0010 O   0  0  0  0  0  0  0  0  0  0  0  0
    0.0668    2.6629   -0.5464 C   0  0  0  0  0  0  0  0  0  0  0  0
    0.4051    4.1159   -0.7045 C   0  0  0  0  0  0  0  0  0  0  0  0
   -0.7843    4.8124   -1.0542 O   0  0  0  0  0  0  0  0  0  0  0  0
   -0.8119    6.1086   -1.5322 C   0  0  0  0  0  0  0  0  0  0  0  0
    0.1813    6.8247   -1.5654 O   0  0  0  0  0  0  0  0  0  0  0  0
    1.9235    0.3411    0.6725 H   0  0  0  0  0  0  0  0  0  0  0  0
   -0.1976    2.2526   -1.5399 H   0  0  0  0  0  0  0  0  0  0  0  0
   -0.8447    2.6384    0.0813 H   0  0  0  0  0  0  0  0  0  0  0  0
    0.6518    4.4841    0.3099 H   0  0  0  0  0  0  0  0  0  0  0  0
    1.2435    4.3875   -1.3744 H   0  0  0  0  0  0  0  0  0  0  0  0
   -1.8397    6.4470   -1.7707 H   0  0  0  0  0  0  0  0  0  0  0  0
  1  2  2  0  0  0  0
  2  9  1  0  0  0  0
  3  2  1  0  0  0  0
  4  3  1  0  0  0  0
  4 11  1  0  0  0  0
  5  4  1  0  0  0  0
  5 12  1  0  0  0  0
  6  5  1  0  0  0  0
  7  6  1  0  0  0  0
  8  7  2  0  0  0  0
 10  4  1  0  0  0  0
 13  5  1  0  0  0  0
 14  7  1  0  0  0  0
M  END
$$$$
