0 1 OCCCL=ORO
 OpenBabel07282316283D

 12 11  0  0  0  0  0  0  0  0999 V2000
    0.0000    0.0000    0.0000 O   0  0  0  0  0  0  0  0  0  0  0  0
    1.4537    0.1944    0.2955 C   0  0  0  0  0  0  0  0  0  0  0  0
    1.8826    1.6910    0.5309 C   0  0  0  0  0  0  0  0  0  0  0  0
    3.3798    1.9394    0.9350 C   0  0  0  0  0  0  0  0  0  0  0  0
    4.3220    2.0769    0.1664 O   0  0  0  0  0  0  0  0  0  0  0  0
    3.5966    1.6856    2.2689 O   0  0  0  0  0  0  0  0  0  0  0  0
   -0.2624   -0.9277    0.1757 H   0  0  0  0  0  0  0  0  0  0  0  0
    1.7366   -0.3199    1.2340 H   0  0  0  0  0  0  0  0  0  0  0  0
    2.1759   -0.1104   -0.4862 H   0  0  0  0  0  0  0  0  0  0  0  0
    1.7450    2.2488   -0.4153 H   0  0  0  0  0  0  0  0  0  0  0  0
    1.2160    2.1448    1.2892 H   0  0  0  0  0  0  0  0  0  0  0  0
    4.5652    1.6409    2.4965 H   0  0  0  0  0  0  0  0  0  0  0  0
  1  7  1  0  0  0  0
  1  2  1  0  0  0  0
  2  3  1  0  0  0  0
  2  8  1  0  0  0  0
  3  4  1  0  0  0  0
  3 11  1  0  0  0  0
  4  6  1  0  0  0  0
  5  4  2  0  0  0  0
  6 12  1  0  0  0  0
  9  2  1  0  0  0  0
 10  3  1  0  0  0  0
M  END
$$$$
