0 1 OCCCOC=O
 OpenBabel07282316283D

 15 14  0  0  0  0  0  0  0  0999 V2000
    0.0000    0.0000    0.0000 O   0  0  0  0  0  0  0  0  0  0  0  0
    0.9897    0.9780    0.1018 C   0  0  0  0  0  0  0  0  0  0  0  0
    2.4484    0.4022   -0.0740 C   0  0  0  0  0  0  0  0  0  0  0  0
    3.5362    1.4024    0.2164 C   0  0  0  0  0  0  0  0  0  0  0  0
    4.6841    0.8372   -0.1655 O   0  0  0  0  0  0  0  0  0  0  0  0
    4.9775    1.0126   -1.4663 C   0  0  0  0  0  0  0  0  0  0  0  0
    6.1027    0.7512   -1.9219 O   0  0  0  0  0  0  0  0  0  0  0  0
   -0.8306    0.5200   -0.0046 H   0  0  0  0  0  0  0  0  0  0  0  0
    0.8240    1.7423   -0.6816 H   0  0  0  0  0  0  0  0  0  0  0  0
    0.9563    1.4892    1.0831 H   0  0  0  0  0  0  0  0  0  0  0  0
    2.5874   -0.4845    0.5740 H   0  0  0  0  0  0  0  0  0  0  0  0
    2.5054    0.0624   -1.1260 H   0  0  0  0  0  0  0  0  0  0  0  0
    3.2640    2.3825   -0.2205 H   0  0  0  0  0  0  0  0  0  0  0  0
    3.6098    1.5317    1.3134 H   0  0  0  0  0  0  0  0  0  0  0  0
    4.1480    1.5316   -1.9861 H   0  0  0  0  0  0  0  0  0  0  0  0
  1  2  1  0  0  0  0
  2 10  1  0  0  0  0
  3  2  1  0  0  0  0
  3  4  1  0  0  0  0
  3 11  1  0  0  0  0
  4 14  1  0  0  0  0
  5  4  1  0  0  0  0
  6  5  1  0  0  0  0
  7  6  2  0  0  0  0
  8  1  1  0  0  0  0
  9  2  1  0  0  0  0
 12  3  1  0  0  0  0
 13  4  1  0  0  0  0
 15  6  1  0  0  0  0
M  END
$$$$
