0 1 OCCCO
 OpenBabel07282316283D

 13 12  0  0  0  0  0  0  0  0999 V2000
   -0.5034    1.9880    0.4769 O   0  0  0  0  0  0  0  0  0  0  0  0
    0.0624    3.2923    0.5423 C   0  0  0  0  0  0  0  0  0  0  0  0
    1.2212    3.3936    1.5271 C   0  0  0  0  0  0  0  0  0  0  0  0
    0.7851    3.2522    2.9780 C   0  0  0  0  0  0  0  0  0  0  0  0
    0.1664    1.9851    3.2583 O   0  0  0  0  0  0  0  0  0  0  0  0
   -0.6801    1.7236    1.4039 H   0  0  0  0  0  0  0  0  0  0  0  0
    0.4125    3.5229   -0.4823 H   0  0  0  0  0  0  0  0  0  0  0  0
   -0.7094    4.0392    0.8104 H   0  0  0  0  0  0  0  0  0  0  0  0
    1.9756    2.6214    1.2821 H   0  0  0  0  0  0  0  0  0  0  0  0
    1.7032    4.3835    1.4119 H   0  0  0  0  0  0  0  0  0  0  0  0
    1.6374    3.4201    3.6642 H   0  0  0  0  0  0  0  0  0  0  0  0
    0.0086    4.0046    3.2154 H   0  0  0  0  0  0  0  0  0  0  0  0
    0.8623    1.2978    3.1981 H   0  0  0  0  0  0  0  0  0  0  0  0
  1  2  1  0  0  0  0
  1  6  1  0  0  0  0
  2  8  1  0  0  0  0
  2  3  1  0  0  0  0
  3  4  1  0  0  0  0
  4 12  1  0  0  0  0
  4  5  1  0  0  0  0
  4 11  1  0  0  0  0
  7  2  1  0  0  0  0
  9  3  1  0  0  0  0
 10  3  1  0  0  0  0
 13  5  1  0  0  0  0
M  END
$$$$
