0 1 OCCOC=O
 OpenBabel07282316283D

 12 11  0  0  0  0  0  0  0  0999 V2000
    0.0000    0.0000    0.0000 O   0  0  0  0  0  0  0  0  0  0  0  0
   -0.6058    0.2373   -1.2558 C   0  0  0  0  0  0  0  0  0  0  0  0
   -0.8488    1.7307   -1.5979 C   0  0  0  0  0  0  0  0  0  0  0  0
   -0.6943    1.9877   -2.9762 O   0  0  0  0  0  0  0  0  0  0  0  0
    0.5838    1.9313   -3.4888 C   0  0  0  0  0  0  0  0  0  0  0  0
    0.7751    1.8011   -4.6932 O   0  0  0  0  0  0  0  0  0  0  0  0
    0.1455   -0.9604    0.1296 H   0  0  0  0  0  0  0  0  0  0  0  0
    0.1414   -0.1649   -1.9666 H   0  0  0  0  0  0  0  0  0  0  0  0
   -1.5157   -0.3884   -1.3342 H   0  0  0  0  0  0  0  0  0  0  0  0
   -1.7989    2.1244   -1.1882 H   0  0  0  0  0  0  0  0  0  0  0  0
   -0.0217    2.3155   -1.1514 H   0  0  0  0  0  0  0  0  0  0  0  0
    1.2791    2.0108   -2.6298 H   0  0  0  0  0  0  0  0  0  0  0  0
  1  7  1  0  0  0  0
  2  1  1  0  0  0  0
  3  2  1  0  0  0  0
  3 10  1  0  0  0  0
  3 11  1  0  0  0  0
  4  3  1  0  0  0  0
  5  4  1  0  0  0  0
  5 12  1  0  0  0  0
  6  5  2  0  0  0  0
  8  2  1  0  0  0  0
  9  2  1  0  0  0  0
M  END
$$$$
