0 1 OCL=ORCS
 OpenBabel07282316283D

  9  8  0  0  0  0  0  0  0  0999 V2000
    0.0000    0.0000    0.0000 O   0  0  0  0  0  0  0  0  0  0  0  0
   -0.8114   -0.6585    0.8790 C   0  0  0  0  0  0  0  0  0  0  0  0
   -1.8962   -0.1106    1.2368 O   0  0  0  0  0  0  0  0  0  0  0  0
   -0.3010   -2.1132    0.9967 C   0  0  0  0  0  0  0  0  0  0  0  0
   -1.3549   -3.1192    2.0773 S   0  0  0  0  0  0  0  0  0  0  0  0
    0.9083   -0.3520   -0.2078 H   0  0  0  0  0  0  0  0  0  0  0  0
   -0.2372   -2.4647   -0.0511 H   0  0  0  0  0  0  0  0  0  0  0  0
    0.7261   -2.0972    1.4094 H   0  0  0  0  0  0  0  0  0  0  0  0
   -2.3025   -3.5406    1.2129 H   0  0  0  0  0  0  0  0  0  0  0  0
  1  2  1  0  0  0  0
  2  4  1  0  0  0  0
  2  3  2  0  0  0  0
  4  8  1  0  0  0  0
  4  5  1  0  0  0  0
  6  1  1  0  0  0  0
  7  4  1  0  0  0  0
  9  5  1  0  0  0  0
M  END
$$$$
