0 1 OCL=ORCCL=ORO
 OpenBabel07282316283D

 11 10  0  0  0  0  0  0  0  0999 V2000
    0.0000    0.0000    0.0000 O   0  0  0  0  0  0  0  0  0  0  0  0
   -0.5866   -0.1678    1.1824 C   0  0  0  0  0  0  0  0  0  0  0  0
   -0.9656   -1.2941    1.6007 O   0  0  0  0  0  0  0  0  0  0  0  0
   -0.7366    1.1767    1.9482 C   0  0  0  0  0  0  0  0  0  0  0  0
   -2.0737    1.8050    1.6656 C   0  0  0  0  0  0  0  0  0  0  0  0
   -3.1263    1.2480    1.5635 O   0  0  0  0  0  0  0  0  0  0  0  0
   -1.9279    3.1453    1.6725 O   0  0  0  0  0  0  0  0  0  0  0  0
    0.4742    0.8586   -0.1732 H   0  0  0  0  0  0  0  0  0  0  0  0
   -0.6015    0.9301    3.0189 H   0  0  0  0  0  0  0  0  0  0  0  0
    0.1357    1.7787    1.6288 H   0  0  0  0  0  0  0  0  0  0  0  0
   -2.8156    3.5793    1.5470 H   0  0  0  0  0  0  0  0  0  0  0  0
  1  2  1  0  0  0  0
  2  3  2  0  0  0  0
  2  4  1  0  0  0  0
  4  9  1  0  0  0  0
  5  7  1  0  0  0  0
  5  4  1  0  0  0  0
  6  5  2  0  0  0  0
  8  1  1  0  0  0  0
 10  4  1  0  0  0  0
 11  7  1  0  0  0  0
M  END
$$$$
