0 1 OPL=ORLORO
 OpenBabel07282316283D

  8  7  0  0  0  0  0  0  0  0999 V2000
   -1.1266    2.7658    2.2882 O   0  0  0  0  0  0  0  0  0  0  0  0
    0.1696    2.4941    1.4031 P   0  0  0  0  0  0  0  0  0  0  0  0
    1.3243    1.9093    2.1016 O   0  0  0  0  0  0  0  0  0  0  0  0
   -0.4300    1.6444    0.1965 O   0  0  0  0  0  0  0  0  0  0  0  0
    0.4041    3.9138    0.7196 O   0  0  0  0  0  0  0  0  0  0  0  0
   -1.2081    2.0760    3.0006 H   0  0  0  0  0  0  0  0  0  0  0  0
    0.2953    1.1470   -0.2689 H   0  0  0  0  0  0  0  0  0  0  0  0
    1.0514    4.4498    1.2523 H   0  0  0  0  0  0  0  0  0  0  0  0
  1  6  1  0  0  0  0
  2  3  2  0  0  0  0
  2  1  1  0  0  0  0
  4  2  1  0  0  0  0
  5  8  1  0  0  0  0
  5  2  1  0  0  0  0
  7  4  1  0  0  0  0
M  END
$$$$
