0 1 S
 OpenBabel07282316283D

  3  2  0  0  0  0  0  0  0  0999 V2000
    2.1406   -2.4447    5.1075 S   0  0  0  0  0  0  0  0  0  0  0  0
    1.1121   -3.2813    4.8748 H   0  0  0  0  0  0  0  0  0  0  0  0
    2.9912   -3.2102    4.3988 H   0  0  0  0  0  0  0  0  0  0  0  0
  2  1  1  0  0  0  0
  3  1  1  0  0  0  0
M  END
$$$$
