0 1 S1CCSCC1
 OpenBabel07282316283D

 14 14  0  0  0  0  0  0  0  0999 V2000
   -0.7252    2.3854   -0.7470 S   0  0  0  0  0  0  0  0  0  0  0  0
    0.3068    3.7638   -1.3025 C   0  0  0  0  0  0  0  0  0  0  0  0
    1.6611    3.8205   -0.6106 C   0  0  0  0  0  0  0  0  0  0  0  0
    2.7514    2.4466   -1.0549 S   0  0  0  0  0  0  0  0  0  0  0  0
    1.7194    1.0681   -0.4994 C   0  0  0  0  0  0  0  0  0  0  0  0
    0.3650    1.0115   -1.1913 C   0  0  0  0  0  0  0  0  0  0  0  0
    0.4355    3.7163   -2.4009 H   0  0  0  0  0  0  0  0  0  0  0  0
   -0.2804    4.6734   -1.0715 H   0  0  0  0  0  0  0  0  0  0  0  0
    1.5326    3.8562    0.4884 H   0  0  0  0  0  0  0  0  0  0  0  0
    2.2097    4.7324   -0.9152 H   0  0  0  0  0  0  0  0  0  0  0  0
    1.5906    1.1156    0.5990 H   0  0  0  0  0  0  0  0  0  0  0  0
    2.3066    0.1585   -0.7304 H   0  0  0  0  0  0  0  0  0  0  0  0
   -0.1836    0.0995   -0.8867 H   0  0  0  0  0  0  0  0  0  0  0  0
    0.4935    0.9757   -2.2902 H   0  0  0  0  0  0  0  0  0  0  0  0
  2  8  1  0  0  0  0
  2  1  1  0  0  0  0
  2  3  1  0  0  0  0
  3  9  1  0  0  0  0
  4  3  1  0  0  0  0
  4  5  1  0  0  0  0
  5 11  1  0  0  0  0
  6 13  1  0  0  0  0
  6  1  1  0  0  0  0
  6  5  1  0  0  0  0
  7  2  1  0  0  0  0
 10  3  1  0  0  0  0
 12  5  1  0  0  0  0
 14  6  1  0  0  0  0
M  END
$$$$
