0 1 SCCCS
 OpenBabel07282316283D

 13 12  0  0  0  0  0  0  0  0999 V2000
    0.0000    0.0000    0.0000 S   0  0  0  0  0  0  0  0  0  0  0  0
    1.6331    0.6805    0.3147 C   0  0  0  0  0  0  0  0  0  0  0  0
    1.4412    1.5780    1.4840 C   0  0  0  0  0  0  0  0  0  0  0  0
    0.9339    2.9404    1.1157 C   0  0  0  0  0  0  0  0  0  0  0  0
    0.8424    4.0222    2.5180 S   0  0  0  0  0  0  0  0  0  0  0  0
    0.1972   -1.1073    0.7467 H   0  0  0  0  0  0  0  0  0  0  0  0
    2.2252   -0.2482    0.4262 H   0  0  0  0  0  0  0  0  0  0  0  0
    2.0211    1.2229   -0.5689 H   0  0  0  0  0  0  0  0  0  0  0  0
    0.7034    1.1762    2.2048 H   0  0  0  0  0  0  0  0  0  0  0  0
    2.3950    1.7263    2.0260 H   0  0  0  0  0  0  0  0  0  0  0  0
    1.5343    3.4291    0.3245 H   0  0  0  0  0  0  0  0  0  0  0  0
   -0.1088    2.8684    0.7509 H   0  0  0  0  0  0  0  0  0  0  0  0
    0.2513    5.1255    2.0122 H   0  0  0  0  0  0  0  0  0  0  0  0
  1  2  1  0  0  0  0
  1  6  1  0  0  0  0
  2  7  1  0  0  0  0
  2  3  1  0  0  0  0
  3 10  1  0  0  0  0
  3  9  1  0  0  0  0
  4  3  1  0  0  0  0
  4  5  1  0  0  0  0
  8  2  1  0  0  0  0
 11  4  1  0  0  0  0
 12  4  1  0  0  0  0
 13  5  1  0  0  0  0
M  END
$$$$
