0 1 SCCOC=O
 OpenBabel07282316283D

 12 11  0  0  0  0  0  0  0  0999 V2000
    0.0000    0.0000    0.0000 S   0  0  0  0  0  0  0  0  0  0  0  0
   -0.2675   -0.2079    1.7863 C   0  0  0  0  0  0  0  0  0  0  0  0
    0.5169    0.8006    2.6142 C   0  0  0  0  0  0  0  0  0  0  0  0
    0.1955    2.1350    2.2860 O   0  0  0  0  0  0  0  0  0  0  0  0
    1.1075    3.0104    1.9050 C   0  0  0  0  0  0  0  0  0  0  0  0
    2.2111    2.7215    1.3962 O   0  0  0  0  0  0  0  0  0  0  0  0
    0.0121    1.3482    0.0682 H   0  0  0  0  0  0  0  0  0  0  0  0
    0.0492   -1.2440    2.0137 H   0  0  0  0  0  0  0  0  0  0  0  0
   -1.3646   -0.1535    1.9236 H   0  0  0  0  0  0  0  0  0  0  0  0
    0.0174    0.7642    3.6015 H   0  0  0  0  0  0  0  0  0  0  0  0
    1.6010    0.6502    2.7798 H   0  0  0  0  0  0  0  0  0  0  0  0
    0.5715    3.9738    1.7947 H   0  0  0  0  0  0  0  0  0  0  0  0
  1  7  1  0  0  0  0
  1  2  1  0  0  0  0
  2  9  1  0  0  0  0
  2  8  1  0  0  0  0
  2  3  1  0  0  0  0
  3 11  1  0  0  0  0
  3 10  1  0  0  0  0
  4  3  1  0  0  0  0
  5  4  1  0  0  0  0
  6  5  2  0  0  0  0
 12  5  1  0  0  0  0
M  END
$$$$
