0 1 SCCS
 OpenBabel07282316283D

 10  9  0  0  0  0  0  0  0  0999 V2000
    0.0000    0.0000    0.0000 S   0  0  0  0  0  0  0  0  0  0  0  0
    0.9778   -1.5163    0.6150 C   0  0  0  0  0  0  0  0  0  0  0  0
    0.4329   -2.2092    1.8671 C   0  0  0  0  0  0  0  0  0  0  0  0
   -1.0619   -3.1164    1.5998 S   0  0  0  0  0  0  0  0  0  0  0  0
    0.7911    0.7474    0.7988 H   0  0  0  0  0  0  0  0  0  0  0  0
    0.9998   -2.3525   -0.1101 H   0  0  0  0  0  0  0  0  0  0  0  0
    2.0180   -1.1643    0.7547 H   0  0  0  0  0  0  0  0  0  0  0  0
    1.1034   -2.9844    2.2853 H   0  0  0  0  0  0  0  0  0  0  0  0
    0.3807   -1.3795    2.5981 H   0  0  0  0  0  0  0  0  0  0  0  0
   -1.2891   -3.4075    2.8983 H   0  0  0  0  0  0  0  0  0  0  0  0
  1  2  1  0  0  0  0
  1  5  1  0  0  0  0
  2  7  1  0  0  0  0
  2  3  1  0  0  0  0
  3  8  1  0  0  0  0
  3  9  1  0  0  0  0
  4  3  1  0  0  0  0
  4 10  1  0  0  0  0
  6  2  1  0  0  0  0
M  END
$$$$
