0 1 SS
 OpenBabel07282316283D

  4  3  0  0  0  0  0  0  0  0999 V2000
    2.3681    9.6716    6.1783 S   0  0  0  0  0  0  0  0  0  0  0  0
    3.2422   11.3487    5.2285 S   0  0  0  0  0  0  0  0  0  0  0  0
    3.4949    9.0628    6.6050 H   0  0  0  0  0  0  0  0  0  0  0  0
    3.6380   10.8884    4.0227 H   0  0  0  0  0  0  0  0  0  0  0  0
  1  3  1  0  0  0  0
  2  1  1  0  0  0  0
  4  2  1  0  0  0  0
M  END
$$$$
